/home/caslab/workspace/sim/ChampSim/bin/champsim --warmup_instructions 200000000 --simulation_instructions 500000000/ /home/caslab/workspace/sim/traces/speccpu_by_champsim400.perlbench-41B.champsimtrace.xz
start simulation for 400.perlbench-41B.champsimtrace.xz

*** ChampSim Multicore Out-of-Order Simulator ***

Warmup Instructions: 200000000
Simulation Instructions: 500000000
Number of CPUs: 1
Off-chip DRAM Size: 4 GiB Channels: 1 Width: 64-bit Data Rate: 3200 MT/s

VirtualMemory physical capacity: 8588881920 num_ppages: 2096895
VirtualMemory page size: 4096 log2_page_size: 12

CPU 0 runs /home/caslab/workspace/sim/traces/speccpu_by_champsim/400.perlbench-41B.champsimtrace.xz
CPU 0 Bimodal branch predictor
Basic BTB sets: 1024 ways: 8 indirect buffer size: 4096 RAS size: 64
LLC next line prefetcher
WARNING: The extended signature CACHE::prefetch_line(ip, base_addr, pf_addr, fill_this_level, prefetch_metadata) is deprecated.
WARNING: Use CACHE::prefetch_line(pf_addr, fill_this_level, prefetch_metadata) instead.
Heartbeat CPU 0 instructions: 10000003 cycles: 2500813 heartbeat IPC: 3.9987 cumulative IPC: 3.9987 (Simulation time: 0 hr 0 min 22 sec) 
Heartbeat CPU 0 instructions: 20000000 cycles: 5105142 heartbeat IPC: 3.83976 cumulative IPC: 3.91762 (Simulation time: 0 hr 0 min 46 sec) 
Heartbeat CPU 0 instructions: 30000000 cycles: 7605142 heartbeat IPC: 4 cumulative IPC: 3.9447 (Simulation time: 0 hr 1 min 6 sec) 
Heartbeat CPU 0 instructions: 40000000 cycles: 10105142 heartbeat IPC: 4 cumulative IPC: 3.95838 (Simulation time: 0 hr 1 min 27 sec) 
Heartbeat CPU 0 instructions: 50000000 cycles: 12605142 heartbeat IPC: 4 cumulative IPC: 3.96664 (Simulation time: 0 hr 1 min 48 sec) 
Heartbeat CPU 0 instructions: 60000000 cycles: 15105142 heartbeat IPC: 4 cumulative IPC: 3.97216 (Simulation time: 0 hr 2 min 9 sec) 
Heartbeat CPU 0 instructions: 70000000 cycles: 17605142 heartbeat IPC: 4 cumulative IPC: 3.97611 (Simulation time: 0 hr 2 min 29 sec) 
Heartbeat CPU 0 instructions: 80000000 cycles: 20105142 heartbeat IPC: 4 cumulative IPC: 3.97908 (Simulation time: 0 hr 2 min 50 sec) 
Heartbeat CPU 0 instructions: 90000000 cycles: 22605142 heartbeat IPC: 4 cumulative IPC: 3.9814 (Simulation time: 0 hr 3 min 10 sec) 
Heartbeat CPU 0 instructions: 100000000 cycles: 25105142 heartbeat IPC: 4 cumulative IPC: 3.98325 (Simulation time: 0 hr 3 min 31 sec) 
Heartbeat CPU 0 instructions: 110000000 cycles: 27605142 heartbeat IPC: 4 cumulative IPC: 3.98476 (Simulation time: 0 hr 3 min 51 sec) 
Heartbeat CPU 0 instructions: 120000000 cycles: 30105142 heartbeat IPC: 4 cumulative IPC: 3.98603 (Simulation time: 0 hr 4 min 12 sec) 
Heartbeat CPU 0 instructions: 130000000 cycles: 32605142 heartbeat IPC: 4 cumulative IPC: 3.9871 (Simulation time: 0 hr 4 min 33 sec) 
Heartbeat CPU 0 instructions: 140000000 cycles: 35105142 heartbeat IPC: 4 cumulative IPC: 3.98802 (Simulation time: 0 hr 4 min 53 sec) 
Heartbeat CPU 0 instructions: 150000000 cycles: 37605142 heartbeat IPC: 4 cumulative IPC: 3.98882 (Simulation time: 0 hr 5 min 14 sec) 
Heartbeat CPU 0 instructions: 160000001 cycles: 40105150 heartbeat IPC: 3.99999 cumulative IPC: 3.98951 (Simulation time: 0 hr 5 min 35 sec) 
Heartbeat CPU 0 instructions: 170000002 cycles: 42605981 heartbeat IPC: 3.99867 cumulative IPC: 3.99005 (Simulation time: 0 hr 5 min 57 sec) 
Heartbeat CPU 0 instructions: 180000000 cycles: 45115937 heartbeat IPC: 3.98413 cumulative IPC: 3.98972 (Simulation time: 0 hr 6 min 19 sec) 
Heartbeat CPU 0 instructions: 190000000 cycles: 47847084 heartbeat IPC: 3.66147 cumulative IPC: 3.97098 (Simulation time: 0 hr 6 min 45 sec) 
Heartbeat CPU 0 instructions: 200000000 cycles: 50347084 heartbeat IPC: 4 cumulative IPC: 3.97242 (Simulation time: 0 hr 7 min 6 sec) 

Warmup complete CPU 0 instructions: 200000004 cycles: 50347085 (Simulation time: 0 hr 7 min 6 sec) 

Heartbeat CPU 0 instructions: 210000002 cycles: 59635967 heartbeat IPC: 1.07656 cumulative IPC: 1.07656 (Simulation time: 0 hr 7 min 30 sec) 
Heartbeat CPU 0 instructions: 220000001 cycles: 69319949 heartbeat IPC: 1.03263 cumulative IPC: 1.05414 (Simulation time: 0 hr 7 min 54 sec) 
Heartbeat CPU 0 instructions: 230000003 cycles: 77641942 heartbeat IPC: 1.20164 cumulative IPC: 1.09911 (Simulation time: 0 hr 8 min 16 sec) 
Heartbeat CPU 0 instructions: 240000003 cycles: 86715559 heartbeat IPC: 1.1021 cumulative IPC: 1.09985 (Simulation time: 0 hr 8 min 41 sec) 
Heartbeat CPU 0 instructions: 250000003 cycles: 95922154 heartbeat IPC: 1.08618 cumulative IPC: 1.09709 (Simulation time: 0 hr 9 min 3 sec) 
Heartbeat CPU 0 instructions: 260000000 cycles: 104955273 heartbeat IPC: 1.10704 cumulative IPC: 1.09874 (Simulation time: 0 hr 9 min 26 sec) 
Heartbeat CPU 0 instructions: 270000002 cycles: 114651197 heartbeat IPC: 1.03136 cumulative IPC: 1.08858 (Simulation time: 0 hr 9 min 49 sec) 
Heartbeat CPU 0 instructions: 280000000 cycles: 123753465 heartbeat IPC: 1.09863 cumulative IPC: 1.08982 (Simulation time: 0 hr 10 min 11 sec) 
Heartbeat CPU 0 instructions: 290000000 cycles: 134022825 heartbeat IPC: 0.97377 cumulative IPC: 1.07558 (Simulation time: 0 hr 10 min 34 sec) 
Heartbeat CPU 0 instructions: 300000003 cycles: 143192383 heartbeat IPC: 1.09057 cumulative IPC: 1.07706 (Simulation time: 0 hr 10 min 57 sec) 
Heartbeat CPU 0 instructions: 310000002 cycles: 152311472 heartbeat IPC: 1.0966 cumulative IPC: 1.07881 (Simulation time: 0 hr 11 min 20 sec) 
Heartbeat CPU 0 instructions: 320000000 cycles: 161699031 heartbeat IPC: 1.06524 cumulative IPC: 1.07766 (Simulation time: 0 hr 11 min 43 sec) 
Heartbeat CPU 0 instructions: 330000002 cycles: 170429984 heartbeat IPC: 1.14535 cumulative IPC: 1.08259 (Simulation time: 0 hr 12 min 5 sec) 
Heartbeat CPU 0 instructions: 340000001 cycles: 182072678 heartbeat IPC: 0.858908 cumulative IPC: 1.06282 (Simulation time: 0 hr 12 min 32 sec) 
Heartbeat CPU 0 instructions: 350000002 cycles: 192913414 heartbeat IPC: 0.922447 cumulative IPC: 1.05214 (Simulation time: 0 hr 13 min 3 sec) 
Heartbeat CPU 0 instructions: 360000002 cycles: 204647880 heartbeat IPC: 0.85219 cumulative IPC: 1.03694 (Simulation time: 0 hr 13 min 31 sec) 
Heartbeat CPU 0 instructions: 370000002 cycles: 214165312 heartbeat IPC: 1.0507 cumulative IPC: 1.03774 (Simulation time: 0 hr 13 min 55 sec) 
Heartbeat CPU 0 instructions: 380000004 cycles: 224127054 heartbeat IPC: 1.00384 cumulative IPC: 1.03579 (Simulation time: 0 hr 14 min 18 sec) 
Heartbeat CPU 0 instructions: 390000001 cycles: 233564549 heartbeat IPC: 1.0596 cumulative IPC: 1.03702 (Simulation time: 0 hr 14 min 42 sec) 
Heartbeat CPU 0 instructions: 400000002 cycles: 243621369 heartbeat IPC: 0.99435 cumulative IPC: 1.0348 (Simulation time: 0 hr 15 min 5 sec) 
Heartbeat CPU 0 instructions: 410000001 cycles: 252737578 heartbeat IPC: 1.09695 cumulative IPC: 1.0376 (Simulation time: 0 hr 15 min 28 sec) 
Heartbeat CPU 0 instructions: 420000000 cycles: 261689091 heartbeat IPC: 1.11713 cumulative IPC: 1.04097 (Simulation time: 0 hr 15 min 51 sec) 
Heartbeat CPU 0 instructions: 430000004 cycles: 271019338 heartbeat IPC: 1.07178 cumulative IPC: 1.04227 (Simulation time: 0 hr 16 min 18 sec) 
Heartbeat CPU 0 instructions: 440000001 cycles: 280540483 heartbeat IPC: 1.05029 cumulative IPC: 1.0426 (Simulation time: 0 hr 16 min 40 sec) 
Heartbeat CPU 0 instructions: 450000003 cycles: 289989422 heartbeat IPC: 1.05832 cumulative IPC: 1.04322 (Simulation time: 0 hr 17 min 4 sec) 
Heartbeat CPU 0 instructions: 460000001 cycles: 299252917 heartbeat IPC: 1.07951 cumulative IPC: 1.04457 (Simulation time: 0 hr 17 min 26 sec) 
Heartbeat CPU 0 instructions: 470000002 cycles: 309328430 heartbeat IPC: 0.992505 cumulative IPC: 1.04255 (Simulation time: 0 hr 17 min 49 sec) 
Heartbeat CPU 0 instructions: 480000004 cycles: 318713313 heartbeat IPC: 1.06554 cumulative IPC: 1.04335 (Simulation time: 0 hr 18 min 12 sec) 
Heartbeat CPU 0 instructions: 490000000 cycles: 328300059 heartbeat IPC: 1.04311 cumulative IPC: 1.04334 (Simulation time: 0 hr 18 min 36 sec) 
Heartbeat CPU 0 instructions: 500000002 cycles: 338421503 heartbeat IPC: 0.988002 cumulative IPC: 1.0414 (Simulation time: 0 hr 18 min 59 sec) 
Heartbeat CPU 0 instructions: 510000004 cycles: 349001208 heartbeat IPC: 0.945206 cumulative IPC: 1.03799 (Simulation time: 0 hr 19 min 23 sec) 
Heartbeat CPU 0 instructions: 520000004 cycles: 358213110 heartbeat IPC: 1.08555 cumulative IPC: 1.03941 (Simulation time: 0 hr 19 min 46 sec) 
Heartbeat CPU 0 instructions: 530000003 cycles: 367986835 heartbeat IPC: 1.02315 cumulative IPC: 1.03891 (Simulation time: 0 hr 20 min 10 sec) 
Heartbeat CPU 0 instructions: 540000001 cycles: 377710150 heartbeat IPC: 1.02846 cumulative IPC: 1.0386 (Simulation time: 0 hr 20 min 32 sec) 
Heartbeat CPU 0 instructions: 550000002 cycles: 386799923 heartbeat IPC: 1.10014 cumulative IPC: 1.04026 (Simulation time: 0 hr 20 min 56 sec) 
Heartbeat CPU 0 instructions: 560000001 cycles: 396016243 heartbeat IPC: 1.08503 cumulative IPC: 1.04146 (Simulation time: 0 hr 21 min 18 sec) 
Heartbeat CPU 0 instructions: 570000002 cycles: 406417280 heartbeat IPC: 0.961443 cumulative IPC: 1.03912 (Simulation time: 0 hr 21 min 42 sec) 
Heartbeat CPU 0 instructions: 580000000 cycles: 419013075 heartbeat IPC: 0.793916 cumulative IPC: 1.03074 (Simulation time: 0 hr 22 min 11 sec) 
Heartbeat CPU 0 instructions: 590000000 cycles: 430565891 heartbeat IPC: 0.86559 cumulative IPC: 1.02573 (Simulation time: 0 hr 22 min 40 sec) 
Heartbeat CPU 0 instructions: 600000001 cycles: 439271887 heartbeat IPC: 1.14863 cumulative IPC: 1.02848 (Simulation time: 0 hr 23 min 3 sec) 
Heartbeat CPU 0 instructions: 610000000 cycles: 448468259 heartbeat IPC: 1.08739 cumulative IPC: 1.02984 (Simulation time: 0 hr 23 min 27 sec) 
Heartbeat CPU 0 instructions: 620000001 cycles: 458314866 heartbeat IPC: 1.01558 cumulative IPC: 1.02949 (Simulation time: 0 hr 23 min 50 sec) 
Heartbeat CPU 0 instructions: 630000004 cycles: 467448984 heartbeat IPC: 1.0948 cumulative IPC: 1.03092 (Simulation time: 0 hr 24 min 12 sec) 
Heartbeat CPU 0 instructions: 640000000 cycles: 476913202 heartbeat IPC: 1.05661 cumulative IPC: 1.03149 (Simulation time: 0 hr 24 min 36 sec) 
Heartbeat CPU 0 instructions: 650000000 cycles: 486407328 heartbeat IPC: 1.05328 cumulative IPC: 1.03197 (Simulation time: 0 hr 25 min 0 sec) 
Heartbeat CPU 0 instructions: 660000000 cycles: 494846918 heartbeat IPC: 1.18489 cumulative IPC: 1.03487 (Simulation time: 0 hr 25 min 22 sec) 
Heartbeat CPU 0 instructions: 670000000 cycles: 503005407 heartbeat IPC: 1.22572 cumulative IPC: 1.03831 (Simulation time: 0 hr 25 min 43 sec) 
Heartbeat CPU 0 instructions: 680000000 cycles: 511977032 heartbeat IPC: 1.11463 cumulative IPC: 1.03979 (Simulation time: 0 hr 26 min 6 sec) 
Heartbeat CPU 0 instructions: 690000000 cycles: 520987246 heartbeat IPC: 1.10985 cumulative IPC: 1.04114 (Simulation time: 0 hr 26 min 31 sec) 
Heartbeat CPU 0 instructions: 700000002 cycles: 530254595 heartbeat IPC: 1.07906 cumulative IPC: 1.04187 (Simulation time: 0 hr 26 min 53 sec) 
Finished CPU 0 instructions: 500000001 cycles: 479907519 cumulative IPC: 1.04187 (Simulation time: 0 hr 26 min 53 sec) 

ChampSim completed all CPUs

Region of Interest Statistics

CPU 0 cumulative IPC: 1.04187 instructions: 500000001 cycles: 479907519
cpu0_L1I TOTAL     ACCESS:   21413046  HIT:   21413032  MISS:         14
cpu0_L1I LOAD      ACCESS:   21413046  HIT:   21413032  MISS:         14
cpu0_L1I RFO       ACCESS:          0  HIT:          0  MISS:          0
cpu0_L1I PREFETCH  ACCESS:          0  HIT:          0  MISS:          0
cpu0_L1I WRITEBACK ACCESS:          0  HIT:          0  MISS:          0
cpu0_L1I TRANSLATION ACCESS:          0  HIT:          0  MISS:          0
cpu0_L1I PREFETCH  REQUESTED:          0  ISSUED:          0  USEFUL:          0  USELESS:          0
cpu0_L1I AVERAGE MISS LATENCY: 158.714 cycles
cpu0_DTLB TOTAL     ACCESS:  109325926  HIT:  109241324  MISS:      84602
cpu0_DTLB LOAD      ACCESS:   73031205  HIT:   72955631  MISS:      75574
cpu0_DTLB RFO       ACCESS:   36294721  HIT:   36285693  MISS:       9028
cpu0_DTLB PREFETCH  ACCESS:          0  HIT:          0  MISS:          0
cpu0_DTLB WRITEBACK ACCESS:          0  HIT:          0  MISS:          0
cpu0_DTLB TRANSLATION ACCESS:          0  HIT:          0  MISS:          0
cpu0_DTLB PREFETCH  REQUESTED:          0  ISSUED:          0  USEFUL:          0  USELESS:          0
cpu0_DTLB AVERAGE MISS LATENCY: 9.33959 cycles
cpu0_ITLB TOTAL     ACCESS:   46946232  HIT:   46946231  MISS:          1
cpu0_ITLB LOAD      ACCESS:   46946232  HIT:   46946231  MISS:          1
cpu0_ITLB RFO       ACCESS:          0  HIT:          0  MISS:          0
cpu0_ITLB PREFETCH  ACCESS:          0  HIT:          0  MISS:          0
cpu0_ITLB WRITEBACK ACCESS:          0  HIT:          0  MISS:          0
cpu0_ITLB TRANSLATION ACCESS:          0  HIT:          0  MISS:          0
cpu0_ITLB PREFETCH  REQUESTED:          0  ISSUED:          0  USEFUL:          0  USELESS:          0
cpu0_ITLB AVERAGE MISS LATENCY: 228 cycles
cpu0_STLB TOTAL     ACCESS:      84603  HIT:      84465  MISS:        138
cpu0_STLB LOAD      ACCESS:      75575  HIT:      75471  MISS:        104
cpu0_STLB RFO       ACCESS:       9028  HIT:       8994  MISS:         34
cpu0_STLB PREFETCH  ACCESS:          0  HIT:          0  MISS:          0
cpu0_STLB WRITEBACK ACCESS:          0  HIT:          0  MISS:          0
cpu0_STLB TRANSLATION ACCESS:          0  HIT:          0  MISS:          0
cpu0_STLB PREFETCH  REQUESTED:          0  ISSUED:          0  USEFUL:          0  USELESS:          0
cpu0_STLB AVERAGE MISS LATENCY: 208.957 cycles
cpu0_L1D TOTAL     ACCESS:  136439859  HIT:  136271128  MISS:     168731
cpu0_L1D LOAD      ACCESS:   69803892  HIT:   69645748  MISS:     158144
cpu0_L1D RFO       ACCESS:   66635829  HIT:   66625254  MISS:      10575
cpu0_L1D PREFETCH  ACCESS:          0  HIT:          0  MISS:          0
cpu0_L1D WRITEBACK ACCESS:          0  HIT:          0  MISS:          0
cpu0_L1D TRANSLATION ACCESS:        138  HIT:        126  MISS:         12
cpu0_L1D PREFETCH  REQUESTED:          0  ISSUED:          0  USEFUL:          0  USELESS:          0
cpu0_L1D AVERAGE MISS LATENCY: 15.9531 cycles
cpu0_L2C TOTAL     ACCESS:     196884  HIT:     190022  MISS:       6862
cpu0_L2C LOAD      ACCESS:     158158  HIT:     153737  MISS:       4421
cpu0_L2C RFO       ACCESS:      10575  HIT:       8134  MISS:       2441
cpu0_L2C PREFETCH  ACCESS:          0  HIT:          0  MISS:          0
cpu0_L2C WRITEBACK ACCESS:      28139  HIT:      28139  MISS:          0
cpu0_L2C TRANSLATION ACCESS:         12  HIT:         12  MISS:          0
cpu0_L2C PREFETCH  REQUESTED:          0  ISSUED:          0  USEFUL:          0  USELESS:          0
cpu0_L2C AVERAGE MISS LATENCY: 121.754 cycles
LLC TOTAL     ACCESS:      10840  HIT:       2738  MISS:       8102
LLC LOAD      ACCESS:       4421  HIT:       1321  MISS:       3100
LLC RFO       ACCESS:       2441  HIT:         65  MISS:       2376
LLC PREFETCH  ACCESS:       3978  HIT:       1352  MISS:       2626
LLC WRITEBACK ACCESS:          0  HIT:          0  MISS:          0
LLC TRANSLATION ACCESS:          0  HIT:          0  MISS:          0
LLC PREFETCH  REQUESTED:       4421  ISSUED:       4421  USEFUL:       1552  USELESS:       1961
LLC AVERAGE MISS LATENCY: 129.43 cycles

DRAM Statistics
 CHANNEL 0
 RQ ROW_BUFFER_HIT:       2842  ROW_BUFFER_MISS:       5260
 DBUS AVG_CONGESTED_CYCLE:    3.52999
 WQ ROW_BUFFER_HIT:          0  ROW_BUFFER_MISS:          0  FULL:          0


CPU 0 Branch Prediction Accuracy: 93.861% MPKI: 12.7172 Average ROB Occupancy at Mispredict: 41.57
Branch type MPKI
BRANCH_DIRECT_JUMP: 0.00021
BRANCH_INDIRECT: 0.334994
BRANCH_CONDITIONAL: 12.2144
BRANCH_DIRECT_CALL: 0.000294
BRANCH_INDIRECT_CALL: 0.165144
BRANCH_RETURN: 0.002222

