/home/caslab/workspace/sim/ChampSim/bin/champsim --warmup_instructions 200000000 --simulation_instructions 500000000/ /home/caslab/workspace/sim/traces/speccpu_by_champsim401.bzip2-277B.champsimtrace.xz
start simulation for 401.bzip2-277B.champsimtrace.xz

*** ChampSim Multicore Out-of-Order Simulator ***

Warmup Instructions: 200000000
Simulation Instructions: 500000000
Number of CPUs: 1
Off-chip DRAM Size: 4 GiB Channels: 1 Width: 64-bit Data Rate: 3200 MT/s

VirtualMemory physical capacity: 8588881920 num_ppages: 2096895
VirtualMemory page size: 4096 log2_page_size: 12

CPU 0 runs /home/caslab/workspace/sim/traces/speccpu_by_champsim/401.bzip2-277B.champsimtrace.xz
CPU 0 Bimodal branch predictor
Basic BTB sets: 1024 ways: 8 indirect buffer size: 4096 RAS size: 64
LLC next line prefetcher
WARNING: The extended signature CACHE::prefetch_line(ip, base_addr, pf_addr, fill_this_level, prefetch_metadata) is deprecated.
WARNING: Use CACHE::prefetch_line(pf_addr, fill_this_level, prefetch_metadata) instead.
Heartbeat CPU 0 instructions: 10000003 cycles: 2529643 heartbeat IPC: 3.95313 cumulative IPC: 3.95313 (Simulation time: 0 hr 0 min 16 sec) 
Heartbeat CPU 0 instructions: 20000000 cycles: 5053647 heartbeat IPC: 3.96196 cumulative IPC: 3.95754 (Simulation time: 0 hr 0 min 33 sec) 
Heartbeat CPU 0 instructions: 30000001 cycles: 7556328 heartbeat IPC: 3.99572 cumulative IPC: 3.97018 (Simulation time: 0 hr 0 min 54 sec) 
Heartbeat CPU 0 instructions: 40000000 cycles: 10058618 heartbeat IPC: 3.99634 cumulative IPC: 3.97669 (Simulation time: 0 hr 1 min 15 sec) 
Heartbeat CPU 0 instructions: 50000000 cycles: 12560914 heartbeat IPC: 3.99633 cumulative IPC: 3.9806 (Simulation time: 0 hr 1 min 35 sec) 
Heartbeat CPU 0 instructions: 60000000 cycles: 15063208 heartbeat IPC: 3.99633 cumulative IPC: 3.98322 (Simulation time: 0 hr 1 min 57 sec) 
Heartbeat CPU 0 instructions: 70000002 cycles: 17670956 heartbeat IPC: 3.83473 cumulative IPC: 3.9613 (Simulation time: 0 hr 2 min 21 sec) 
Heartbeat CPU 0 instructions: 80000000 cycles: 20198366 heartbeat IPC: 3.95662 cumulative IPC: 3.96072 (Simulation time: 0 hr 2 min 37 sec) 
Heartbeat CPU 0 instructions: 90000001 cycles: 22723000 heartbeat IPC: 3.96097 cumulative IPC: 3.96074 (Simulation time: 0 hr 2 min 53 sec) 
Heartbeat CPU 0 instructions: 100000002 cycles: 25225674 heartbeat IPC: 3.99573 cumulative IPC: 3.96422 (Simulation time: 0 hr 3 min 14 sec) 
Heartbeat CPU 0 instructions: 110000002 cycles: 27727967 heartbeat IPC: 3.99633 cumulative IPC: 3.96711 (Simulation time: 0 hr 3 min 35 sec) 
Heartbeat CPU 0 instructions: 120000001 cycles: 30230262 heartbeat IPC: 3.99633 cumulative IPC: 3.96953 (Simulation time: 0 hr 3 min 55 sec) 
Heartbeat CPU 0 instructions: 130000002 cycles: 32734717 heartbeat IPC: 3.99289 cumulative IPC: 3.97132 (Simulation time: 0 hr 4 min 16 sec) 
Heartbeat CPU 0 instructions: 140000000 cycles: 35319635 heartbeat IPC: 3.86859 cumulative IPC: 3.9638 (Simulation time: 0 hr 4 min 39 sec) 
Heartbeat CPU 0 instructions: 150000003 cycles: 37846001 heartbeat IPC: 3.95826 cumulative IPC: 3.96343 (Simulation time: 0 hr 4 min 54 sec) 
Heartbeat CPU 0 instructions: 160000000 cycles: 40364803 heartbeat IPC: 3.97014 cumulative IPC: 3.96385 (Simulation time: 0 hr 5 min 11 sec) 
Heartbeat CPU 0 instructions: 170000001 cycles: 42867476 heartbeat IPC: 3.99573 cumulative IPC: 3.96571 (Simulation time: 0 hr 5 min 32 sec) 
Heartbeat CPU 0 instructions: 180000002 cycles: 45369770 heartbeat IPC: 3.99633 cumulative IPC: 3.9674 (Simulation time: 0 hr 5 min 53 sec) 
Heartbeat CPU 0 instructions: 190000000 cycles: 47872077 heartbeat IPC: 3.99631 cumulative IPC: 3.96891 (Simulation time: 0 hr 6 min 13 sec) 
Heartbeat CPU 0 instructions: 200000001 cycles: 50417581 heartbeat IPC: 3.9285 cumulative IPC: 3.96687 (Simulation time: 0 hr 6 min 36 sec) 

Warmup complete CPU 0 instructions: 200000001 cycles: 50417581 (Simulation time: 0 hr 6 min 36 sec) 

Heartbeat CPU 0 instructions: 210000003 cycles: 53489142 heartbeat IPC: 3.25567 cumulative IPC: 3.25567 (Simulation time: 0 hr 7 min 2 sec) 
Heartbeat CPU 0 instructions: 220000004 cycles: 56586686 heartbeat IPC: 3.22836 cumulative IPC: 3.24196 (Simulation time: 0 hr 7 min 16 sec) 
Heartbeat CPU 0 instructions: 230000001 cycles: 63518598 heartbeat IPC: 1.4426 cumulative IPC: 2.2899 (Simulation time: 0 hr 7 min 33 sec) 
Heartbeat CPU 0 instructions: 240000000 cycles: 74495182 heartbeat IPC: 0.91103 cumulative IPC: 1.6613 (Simulation time: 0 hr 7 min 54 sec) 
Heartbeat CPU 0 instructions: 250000001 cycles: 85198572 heartbeat IPC: 0.934284 cumulative IPC: 1.43757 (Simulation time: 0 hr 8 min 14 sec) 
Heartbeat CPU 0 instructions: 260000000 cycles: 95187956 heartbeat IPC: 1.00106 cumulative IPC: 1.34017 (Simulation time: 0 hr 8 min 35 sec) 
Heartbeat CPU 0 instructions: 270000004 cycles: 102523290 heartbeat IPC: 1.36327 cumulative IPC: 1.34342 (Simulation time: 0 hr 9 min 1 sec) 
Heartbeat CPU 0 instructions: 280000002 cycles: 105597008 heartbeat IPC: 3.25339 cumulative IPC: 1.44982 (Simulation time: 0 hr 9 min 23 sec) 
Heartbeat CPU 0 instructions: 290000001 cycles: 108722179 heartbeat IPC: 3.19982 cumulative IPC: 1.54362 (Simulation time: 0 hr 9 min 37 sec) 
Heartbeat CPU 0 instructions: 300000002 cycles: 117211357 heartbeat IPC: 1.17797 cumulative IPC: 1.49715 (Simulation time: 0 hr 9 min 55 sec) 
Heartbeat CPU 0 instructions: 310000000 cycles: 126973429 heartbeat IPC: 1.02437 cumulative IPC: 1.43686 (Simulation time: 0 hr 10 min 15 sec) 
Heartbeat CPU 0 instructions: 320000004 cycles: 136571700 heartbeat IPC: 1.04185 cumulative IPC: 1.39285 (Simulation time: 0 hr 10 min 35 sec) 
Heartbeat CPU 0 instructions: 330000001 cycles: 143147694 heartbeat IPC: 1.52068 cumulative IPC: 1.40192 (Simulation time: 0 hr 11 min 2 sec) 
Heartbeat CPU 0 instructions: 340000003 cycles: 146488064 heartbeat IPC: 2.99368 cumulative IPC: 1.45726 (Simulation time: 0 hr 11 min 23 sec) 
Heartbeat CPU 0 instructions: 350000001 cycles: 149964132 heartbeat IPC: 2.87681 cumulative IPC: 1.50683 (Simulation time: 0 hr 11 min 36 sec) 
Heartbeat CPU 0 instructions: 360000000 cycles: 158838858 heartbeat IPC: 1.1268 cumulative IPC: 1.47573 (Simulation time: 0 hr 11 min 55 sec) 
Heartbeat CPU 0 instructions: 370000001 cycles: 169844851 heartbeat IPC: 0.908596 cumulative IPC: 1.42346 (Simulation time: 0 hr 12 min 16 sec) 
Heartbeat CPU 0 instructions: 380000000 cycles: 179963117 heartbeat IPC: 0.988312 cumulative IPC: 1.38947 (Simulation time: 0 hr 12 min 36 sec) 
Heartbeat CPU 0 instructions: 390000000 cycles: 191480721 heartbeat IPC: 0.868236 cumulative IPC: 1.34691 (Simulation time: 0 hr 12 min 57 sec) 
Heartbeat CPU 0 instructions: 400000000 cycles: 201950055 heartbeat IPC: 0.955171 cumulative IPC: 1.31985 (Simulation time: 0 hr 13 min 20 sec) 
Heartbeat CPU 0 instructions: 410000004 cycles: 205044329 heartbeat IPC: 3.23178 cumulative IPC: 1.35811 (Simulation time: 0 hr 13 min 47 sec) 
Heartbeat CPU 0 instructions: 420000001 cycles: 208345468 heartbeat IPC: 3.02926 cumulative IPC: 1.39304 (Simulation time: 0 hr 14 min 1 sec) 
Heartbeat CPU 0 instructions: 430000000 cycles: 214505136 heartbeat IPC: 1.62346 cumulative IPC: 1.40169 (Simulation time: 0 hr 14 min 17 sec) 
Heartbeat CPU 0 instructions: 440000003 cycles: 225064411 heartbeat IPC: 0.947035 cumulative IPC: 1.3742 (Simulation time: 0 hr 14 min 38 sec) 
Heartbeat CPU 0 instructions: 450000004 cycles: 235787608 heartbeat IPC: 0.932558 cumulative IPC: 1.34865 (Simulation time: 0 hr 14 min 58 sec) 
Heartbeat CPU 0 instructions: 460000002 cycles: 246902925 heartbeat IPC: 0.899659 cumulative IPC: 1.32325 (Simulation time: 0 hr 15 min 19 sec) 
Heartbeat CPU 0 instructions: 470000001 cycles: 257901115 heartbeat IPC: 0.90924 cumulative IPC: 1.30131 (Simulation time: 0 hr 15 min 41 sec) 
Heartbeat CPU 0 instructions: 480000000 cycles: 263311004 heartbeat IPC: 1.84847 cumulative IPC: 1.31521 (Simulation time: 0 hr 16 min 11 sec) 
Heartbeat CPU 0 instructions: 490000001 cycles: 266436839 heartbeat IPC: 3.19915 cumulative IPC: 1.34247 (Simulation time: 0 hr 16 min 28 sec) 
Heartbeat CPU 0 instructions: 500000004 cycles: 269734850 heartbeat IPC: 3.03213 cumulative IPC: 1.36788 (Simulation time: 0 hr 16 min 42 sec) 
Heartbeat CPU 0 instructions: 510000001 cycles: 279667610 heartbeat IPC: 1.00677 cumulative IPC: 1.35224 (Simulation time: 0 hr 17 min 1 sec) 
Heartbeat CPU 0 instructions: 520000004 cycles: 290608571 heartbeat IPC: 0.913997 cumulative IPC: 1.33227 (Simulation time: 0 hr 17 min 22 sec) 
Heartbeat CPU 0 instructions: 530000004 cycles: 301675408 heartbeat IPC: 0.903601 cumulative IPC: 1.31339 (Simulation time: 0 hr 17 min 43 sec) 
Heartbeat CPU 0 instructions: 540000001 cycles: 312873553 heartbeat IPC: 0.893005 cumulative IPC: 1.29546 (Simulation time: 0 hr 18 min 4 sec) 
Heartbeat CPU 0 instructions: 550000000 cycles: 324049002 heartbeat IPC: 0.894819 cumulative IPC: 1.27909 (Simulation time: 0 hr 18 min 24 sec) 
Heartbeat CPU 0 instructions: 560000001 cycles: 330459347 heartbeat IPC: 1.55998 cumulative IPC: 1.28552 (Simulation time: 0 hr 18 min 52 sec) 
Heartbeat CPU 0 instructions: 570000001 cycles: 333607449 heartbeat IPC: 3.17652 cumulative IPC: 1.30654 (Simulation time: 0 hr 19 min 11 sec) 
Heartbeat CPU 0 instructions: 580000003 cycles: 336838997 heartbeat IPC: 3.09449 cumulative IPC: 1.32672 (Simulation time: 0 hr 19 min 25 sec) 
Heartbeat CPU 0 instructions: 590000004 cycles: 345671506 heartbeat IPC: 1.13218 cumulative IPC: 1.3209 (Simulation time: 0 hr 19 min 44 sec) 
Heartbeat CPU 0 instructions: 600000002 cycles: 356309307 heartbeat IPC: 0.940044 cumulative IPC: 1.30765 (Simulation time: 0 hr 20 min 4 sec) 
Heartbeat CPU 0 instructions: 610000000 cycles: 367395057 heartbeat IPC: 0.902059 cumulative IPC: 1.29347 (Simulation time: 0 hr 20 min 25 sec) 
Heartbeat CPU 0 instructions: 620000000 cycles: 378233236 heartbeat IPC: 0.922664 cumulative IPC: 1.28121 (Simulation time: 0 hr 20 min 46 sec) 
Heartbeat CPU 0 instructions: 630000004 cycles: 385269669 heartbeat IPC: 1.42118 cumulative IPC: 1.28415 (Simulation time: 0 hr 21 min 13 sec) 
Heartbeat CPU 0 instructions: 640000002 cycles: 388447050 heartbeat IPC: 3.14725 cumulative IPC: 1.30166 (Simulation time: 0 hr 21 min 34 sec) 
Heartbeat CPU 0 instructions: 650000002 cycles: 391848787 heartbeat IPC: 2.93967 cumulative IPC: 1.31798 (Simulation time: 0 hr 21 min 48 sec) 
Heartbeat CPU 0 instructions: 660000001 cycles: 400917250 heartbeat IPC: 1.10272 cumulative IPC: 1.31241 (Simulation time: 0 hr 22 min 7 sec) 
Heartbeat CPU 0 instructions: 670000004 cycles: 411981731 heartbeat IPC: 0.903793 cumulative IPC: 1.29991 (Simulation time: 0 hr 22 min 27 sec) 
Heartbeat CPU 0 instructions: 680000000 cycles: 423191730 heartbeat IPC: 0.89206 cumulative IPC: 1.28764 (Simulation time: 0 hr 22 min 48 sec) 
Heartbeat CPU 0 instructions: 690000001 cycles: 434678265 heartbeat IPC: 0.870585 cumulative IPC: 1.27518 (Simulation time: 0 hr 23 min 9 sec) 
Heartbeat CPU 0 instructions: 700000002 cycles: 446177768 heartbeat IPC: 0.869603 cumulative IPC: 1.26339 (Simulation time: 0 hr 23 min 30 sec) 
Finished CPU 0 instructions: 500000001 cycles: 395760187 cumulative IPC: 1.26339 (Simulation time: 0 hr 23 min 30 sec) 

ChampSim completed all CPUs

Region of Interest Statistics

CPU 0 cumulative IPC: 1.26339 instructions: 500000001 cycles: 395760187
cpu0_L1I TOTAL     ACCESS:   28494751  HIT:   28494750  MISS:          1
cpu0_L1I LOAD      ACCESS:   28494751  HIT:   28494750  MISS:          1
cpu0_L1I RFO       ACCESS:          0  HIT:          0  MISS:          0
cpu0_L1I PREFETCH  ACCESS:          0  HIT:          0  MISS:          0
cpu0_L1I WRITEBACK ACCESS:          0  HIT:          0  MISS:          0
cpu0_L1I TRANSLATION ACCESS:          0  HIT:          0  MISS:          0
cpu0_L1I PREFETCH  REQUESTED:          0  ISSUED:          0  USEFUL:          0  USELESS:          0
cpu0_L1I AVERAGE MISS LATENCY: 32 cycles
cpu0_DTLB TOTAL     ACCESS:  108139434  HIT:  107398024  MISS:     741410
cpu0_DTLB LOAD      ACCESS:   66426963  HIT:   65697456  MISS:     729507
cpu0_DTLB RFO       ACCESS:   41712471  HIT:   41700568  MISS:      11903
cpu0_DTLB PREFETCH  ACCESS:          0  HIT:          0  MISS:          0
cpu0_DTLB WRITEBACK ACCESS:          0  HIT:          0  MISS:          0
cpu0_DTLB TRANSLATION ACCESS:          0  HIT:          0  MISS:          0
cpu0_DTLB PREFETCH  REQUESTED:          0  ISSUED:          0  USEFUL:          0  USELESS:          0
cpu0_DTLB AVERAGE MISS LATENCY: 9.41634 cycles
cpu0_ITLB TOTAL     ACCESS:   39559459  HIT:   39559459  MISS:          0
cpu0_ITLB LOAD      ACCESS:   39559459  HIT:   39559459  MISS:          0
cpu0_ITLB RFO       ACCESS:          0  HIT:          0  MISS:          0
cpu0_ITLB PREFETCH  ACCESS:          0  HIT:          0  MISS:          0
cpu0_ITLB WRITEBACK ACCESS:          0  HIT:          0  MISS:          0
cpu0_ITLB TRANSLATION ACCESS:          0  HIT:          0  MISS:          0
cpu0_ITLB PREFETCH  REQUESTED:          0  ISSUED:          0  USEFUL:          0  USELESS:          0
cpu0_ITLB AVERAGE MISS LATENCY: -nan cycles
cpu0_STLB TOTAL     ACCESS:     741410  HIT:     739931  MISS:       1479
cpu0_STLB LOAD      ACCESS:     729507  HIT:     729267  MISS:        240
cpu0_STLB RFO       ACCESS:      11903  HIT:      10664  MISS:       1239
cpu0_STLB PREFETCH  ACCESS:          0  HIT:          0  MISS:          0
cpu0_STLB WRITEBACK ACCESS:          0  HIT:          0  MISS:          0
cpu0_STLB TRANSLATION ACCESS:          0  HIT:          0  MISS:          0
cpu0_STLB PREFETCH  REQUESTED:          0  ISSUED:          0  USEFUL:          0  USELESS:          0
cpu0_STLB AVERAGE MISS LATENCY: 208.112 cycles
cpu0_L1D TOTAL     ACCESS:  118216081  HIT:  117812522  MISS:     403559
cpu0_L1D LOAD      ACCESS:   69455403  HIT:   69222839  MISS:     232564
cpu0_L1D RFO       ACCESS:   48759199  HIT:   48588219  MISS:     170980
cpu0_L1D PREFETCH  ACCESS:          0  HIT:          0  MISS:          0
cpu0_L1D WRITEBACK ACCESS:          0  HIT:          0  MISS:          0
cpu0_L1D TRANSLATION ACCESS:       1479  HIT:       1464  MISS:         15
cpu0_L1D PREFETCH  REQUESTED:          0  ISSUED:          0  USEFUL:          0  USELESS:          0
cpu0_L1D AVERAGE MISS LATENCY: 30.8589 cycles
cpu0_L2C TOTAL     ACCESS:     723498  HIT:     628833  MISS:      94665
cpu0_L2C LOAD      ACCESS:     232565  HIT:     217173  MISS:      15392
cpu0_L2C RFO       ACCESS:     170980  HIT:      91707  MISS:      79273
cpu0_L2C PREFETCH  ACCESS:          0  HIT:          0  MISS:          0
cpu0_L2C WRITEBACK ACCESS:     319938  HIT:     319938  MISS:          0
cpu0_L2C TRANSLATION ACCESS:         15  HIT:         15  MISS:          0
cpu0_L2C PREFETCH  REQUESTED:          0  ISSUED:          0  USEFUL:          0  USELESS:          0
cpu0_L2C AVERAGE MISS LATENCY: 84.6578 cycles
LLC TOTAL     ACCESS:     109027  HIT:      14122  MISS:      94905
LLC LOAD      ACCESS:      15392  HIT:      14122  MISS:       1270
LLC RFO       ACCESS:      79273  HIT:          0  MISS:      79273
LLC PREFETCH  ACCESS:      14362  HIT:          0  MISS:      14362
LLC WRITEBACK ACCESS:          0  HIT:          0  MISS:          0
LLC TRANSLATION ACCESS:          0  HIT:          0  MISS:          0
LLC PREFETCH  REQUESTED:      15392  ISSUED:      15392  USEFUL:      15152  USELESS:        695
LLC AVERAGE MISS LATENCY: 73.0661 cycles

DRAM Statistics
 CHANNEL 0
 RQ ROW_BUFFER_HIT:      82921  ROW_BUFFER_MISS:      11984
 DBUS AVG_CONGESTED_CYCLE:    2.67391
 WQ ROW_BUFFER_HIT:          0  ROW_BUFFER_MISS:          0  FULL:          0


CPU 0 Branch Prediction Accuracy: 88.3574% MPKI: 18.5484 Average ROB Occupancy at Mispredict: 11.8304
Branch type MPKI
BRANCH_DIRECT_JUMP: 0
BRANCH_INDIRECT: 0.00029
BRANCH_CONDITIONAL: 18.5481
BRANCH_DIRECT_CALL: 0
BRANCH_INDIRECT_CALL: 0
BRANCH_RETURN: 0

