/home/caslab/workspace/sim/ChampSim/bin/champsim --warmup_instructions 200000000 --simulation_instructions 500000000/ /home/caslab/workspace/sim/traces/speccpu_by_champsim401.bzip2-226B.champsimtrace.xz
start simulation for 401.bzip2-226B.champsimtrace.xz

*** ChampSim Multicore Out-of-Order Simulator ***

Warmup Instructions: 200000000
Simulation Instructions: 500000000
Number of CPUs: 1
Off-chip DRAM Size: 4 GiB Channels: 1 Width: 64-bit Data Rate: 3200 MT/s

VirtualMemory physical capacity: 8588881920 num_ppages: 2096895
VirtualMemory page size: 4096 log2_page_size: 12

CPU 0 runs /home/caslab/workspace/sim/traces/speccpu_by_champsim/401.bzip2-226B.champsimtrace.xz
CPU 0 Bimodal branch predictor
Basic BTB sets: 1024 ways: 8 indirect buffer size: 4096 RAS size: 64
LLC next line prefetcher
WARNING: The extended signature CACHE::prefetch_line(ip, base_addr, pf_addr, fill_this_level, prefetch_metadata) is deprecated.
WARNING: Use CACHE::prefetch_line(pf_addr, fill_this_level, prefetch_metadata) instead.
Heartbeat CPU 0 instructions: 10000002 cycles: 2519538 heartbeat IPC: 3.96898 cumulative IPC: 3.96898 (Simulation time: 0 hr 0 min 21 sec) 
Heartbeat CPU 0 instructions: 20000003 cycles: 5036170 heartbeat IPC: 3.97357 cumulative IPC: 3.97127 (Simulation time: 0 hr 0 min 42 sec) 
Heartbeat CPU 0 instructions: 30000002 cycles: 7568835 heartbeat IPC: 3.94841 cumulative IPC: 3.96362 (Simulation time: 0 hr 1 min 2 sec) 
Heartbeat CPU 0 instructions: 40000001 cycles: 10200785 heartbeat IPC: 3.79946 cumulative IPC: 3.92127 (Simulation time: 0 hr 1 min 24 sec) 
Heartbeat CPU 0 instructions: 50000004 cycles: 13348858 heartbeat IPC: 3.17655 cumulative IPC: 3.74564 (Simulation time: 0 hr 1 min 53 sec) 
Heartbeat CPU 0 instructions: 60000000 cycles: 16542606 heartbeat IPC: 3.13112 cumulative IPC: 3.627 (Simulation time: 0 hr 2 min 23 sec) 
Heartbeat CPU 0 instructions: 70000001 cycles: 19708977 heartbeat IPC: 3.15819 cumulative IPC: 3.55168 (Simulation time: 0 hr 2 min 52 sec) 
Heartbeat CPU 0 instructions: 80000000 cycles: 22632477 heartbeat IPC: 3.42056 cumulative IPC: 3.53474 (Simulation time: 0 hr 3 min 18 sec) 
Heartbeat CPU 0 instructions: 90000003 cycles: 25648079 heartbeat IPC: 3.31609 cumulative IPC: 3.50903 (Simulation time: 0 hr 3 min 46 sec) 
Heartbeat CPU 0 instructions: 100000002 cycles: 28819683 heartbeat IPC: 3.15298 cumulative IPC: 3.46985 (Simulation time: 0 hr 4 min 15 sec) 
Heartbeat CPU 0 instructions: 110000000 cycles: 31783629 heartbeat IPC: 3.37388 cumulative IPC: 3.4609 (Simulation time: 0 hr 4 min 42 sec) 
Heartbeat CPU 0 instructions: 120000000 cycles: 34667023 heartbeat IPC: 3.46814 cumulative IPC: 3.4615 (Simulation time: 0 hr 5 min 8 sec) 
Heartbeat CPU 0 instructions: 130000004 cycles: 37639903 heartbeat IPC: 3.36374 cumulative IPC: 3.45378 (Simulation time: 0 hr 5 min 35 sec) 
Heartbeat CPU 0 instructions: 140000000 cycles: 40576568 heartbeat IPC: 3.40522 cumulative IPC: 3.45027 (Simulation time: 0 hr 6 min 2 sec) 
Heartbeat CPU 0 instructions: 150000001 cycles: 43567686 heartbeat IPC: 3.34323 cumulative IPC: 3.44292 (Simulation time: 0 hr 6 min 29 sec) 
Heartbeat CPU 0 instructions: 160000001 cycles: 46446877 heartbeat IPC: 3.4732 cumulative IPC: 3.4448 (Simulation time: 0 hr 6 min 55 sec) 
Heartbeat CPU 0 instructions: 170000000 cycles: 49393710 heartbeat IPC: 3.39347 cumulative IPC: 3.44173 (Simulation time: 0 hr 7 min 22 sec) 
Heartbeat CPU 0 instructions: 180000003 cycles: 52553781 heartbeat IPC: 3.16449 cumulative IPC: 3.42506 (Simulation time: 0 hr 7 min 51 sec) 
Heartbeat CPU 0 instructions: 190000003 cycles: 55439573 heartbeat IPC: 3.46525 cumulative IPC: 3.42715 (Simulation time: 0 hr 8 min 17 sec) 
Heartbeat CPU 0 instructions: 200000003 cycles: 58462097 heartbeat IPC: 3.30849 cumulative IPC: 3.42102 (Simulation time: 0 hr 8 min 44 sec) 

Warmup complete CPU 0 instructions: 200000003 cycles: 58462097 (Simulation time: 0 hr 8 min 44 sec) 

Heartbeat CPU 0 instructions: 210000000 cycles: 65479215 heartbeat IPC: 1.42509 cumulative IPC: 1.42509 (Simulation time: 0 hr 9 min 7 sec) 
Heartbeat CPU 0 instructions: 220000000 cycles: 70370153 heartbeat IPC: 2.0446 cumulative IPC: 1.67954 (Simulation time: 0 hr 9 min 29 sec) 
Heartbeat CPU 0 instructions: 230000001 cycles: 75811540 heartbeat IPC: 1.83777 cumulative IPC: 1.72916 (Simulation time: 0 hr 9 min 45 sec) 
Heartbeat CPU 0 instructions: 240000002 cycles: 82007847 heartbeat IPC: 1.61386 cumulative IPC: 1.69882 (Simulation time: 0 hr 10 min 7 sec) 
Heartbeat CPU 0 instructions: 250000003 cycles: 92206197 heartbeat IPC: 0.980551 cumulative IPC: 1.48174 (Simulation time: 0 hr 10 min 55 sec) 
Heartbeat CPU 0 instructions: 260000001 cycles: 102092690 heartbeat IPC: 1.01148 cumulative IPC: 1.37518 (Simulation time: 0 hr 11 min 36 sec) 
Heartbeat CPU 0 instructions: 270000001 cycles: 108736606 heartbeat IPC: 1.50514 cumulative IPC: 1.39236 (Simulation time: 0 hr 12 min 1 sec) 
Heartbeat CPU 0 instructions: 280000004 cycles: 115068934 heartbeat IPC: 1.5792 cumulative IPC: 1.41326 (Simulation time: 0 hr 12 min 31 sec) 
Heartbeat CPU 0 instructions: 290000003 cycles: 121410312 heartbeat IPC: 1.57694 cumulative IPC: 1.42975 (Simulation time: 0 hr 13 min 0 sec) 
Heartbeat CPU 0 instructions: 300000001 cycles: 127791853 heartbeat IPC: 1.56702 cumulative IPC: 1.44238 (Simulation time: 0 hr 13 min 29 sec) 
Heartbeat CPU 0 instructions: 310000002 cycles: 133331207 heartbeat IPC: 1.80526 cumulative IPC: 1.46923 (Simulation time: 0 hr 13 min 56 sec) 
Heartbeat CPU 0 instructions: 320000001 cycles: 135999949 heartbeat IPC: 3.74708 cumulative IPC: 1.54763 (Simulation time: 0 hr 14 min 17 sec) 
Heartbeat CPU 0 instructions: 330000001 cycles: 140459308 heartbeat IPC: 2.24247 cumulative IPC: 1.58542 (Simulation time: 0 hr 14 min 41 sec) 
Heartbeat CPU 0 instructions: 340000000 cycles: 147456243 heartbeat IPC: 1.4292 cumulative IPC: 1.57314 (Simulation time: 0 hr 15 min 6 sec) 
Heartbeat CPU 0 instructions: 350000002 cycles: 153749183 heartbeat IPC: 1.58908 cumulative IPC: 1.57419 (Simulation time: 0 hr 15 min 32 sec) 
Heartbeat CPU 0 instructions: 360000001 cycles: 160953415 heartbeat IPC: 1.38807 cumulative IPC: 1.56111 (Simulation time: 0 hr 15 min 56 sec) 
Heartbeat CPU 0 instructions: 370000001 cycles: 167676625 heartbeat IPC: 1.48738 cumulative IPC: 1.55657 (Simulation time: 0 hr 16 min 20 sec) 
Heartbeat CPU 0 instructions: 380000002 cycles: 174976935 heartbeat IPC: 1.3698 cumulative IPC: 1.54487 (Simulation time: 0 hr 16 min 44 sec) 
Heartbeat CPU 0 instructions: 390000004 cycles: 181875337 heartbeat IPC: 1.44961 cumulative IPC: 1.53954 (Simulation time: 0 hr 17 min 8 sec) 
Heartbeat CPU 0 instructions: 400000002 cycles: 189212391 heartbeat IPC: 1.36294 cumulative IPC: 1.52963 (Simulation time: 0 hr 17 min 32 sec) 
Heartbeat CPU 0 instructions: 410000004 cycles: 196816786 heartbeat IPC: 1.31503 cumulative IPC: 1.51784 (Simulation time: 0 hr 17 min 55 sec) 
Heartbeat CPU 0 instructions: 420000003 cycles: 204265089 heartbeat IPC: 1.34259 cumulative IPC: 1.50889 (Simulation time: 0 hr 18 min 18 sec) 
Heartbeat CPU 0 instructions: 430000002 cycles: 211351552 heartbeat IPC: 1.41114 cumulative IPC: 1.50435 (Simulation time: 0 hr 18 min 41 sec) 
Heartbeat CPU 0 instructions: 440000000 cycles: 218563451 heartbeat IPC: 1.3866 cumulative IPC: 1.49905 (Simulation time: 0 hr 19 min 4 sec) 
Heartbeat CPU 0 instructions: 450000001 cycles: 225598959 heartbeat IPC: 1.42136 cumulative IPC: 1.49578 (Simulation time: 0 hr 19 min 27 sec) 
Heartbeat CPU 0 instructions: 460000004 cycles: 232944463 heartbeat IPC: 1.36138 cumulative IPC: 1.49012 (Simulation time: 0 hr 19 min 49 sec) 
Heartbeat CPU 0 instructions: 470000003 cycles: 240147964 heartbeat IPC: 1.38821 cumulative IPC: 1.48608 (Simulation time: 0 hr 20 min 12 sec) 
Heartbeat CPU 0 instructions: 480000001 cycles: 246674503 heartbeat IPC: 1.53221 cumulative IPC: 1.48768 (Simulation time: 0 hr 20 min 36 sec) 
Heartbeat CPU 0 instructions: 490000001 cycles: 253858858 heartbeat IPC: 1.39191 cumulative IPC: 1.48416 (Simulation time: 0 hr 21 min 0 sec) 
Heartbeat CPU 0 instructions: 500000000 cycles: 260995377 heartbeat IPC: 1.40124 cumulative IPC: 1.48124 (Simulation time: 0 hr 21 min 22 sec) 
Heartbeat CPU 0 instructions: 510000001 cycles: 266484584 heartbeat IPC: 1.82176 cumulative IPC: 1.49022 (Simulation time: 0 hr 21 min 45 sec) 
Heartbeat CPU 0 instructions: 520000002 cycles: 271533457 heartbeat IPC: 1.98064 cumulative IPC: 1.50184 (Simulation time: 0 hr 22 min 1 sec) 
Heartbeat CPU 0 instructions: 530000001 cycles: 276904667 heartbeat IPC: 1.86178 cumulative IPC: 1.51069 (Simulation time: 0 hr 22 min 17 sec) 
Heartbeat CPU 0 instructions: 540000004 cycles: 286033157 heartbeat IPC: 1.09547 cumulative IPC: 1.49404 (Simulation time: 0 hr 22 min 58 sec) 
Heartbeat CPU 0 instructions: 550000002 cycles: 296236442 heartbeat IPC: 0.980076 cumulative IPC: 1.47198 (Simulation time: 0 hr 23 min 45 sec) 
Heartbeat CPU 0 instructions: 560000000 cycles: 304873939 heartbeat IPC: 1.15774 cumulative IPC: 1.46097 (Simulation time: 0 hr 24 min 12 sec) 
Heartbeat CPU 0 instructions: 570000002 cycles: 310587758 heartbeat IPC: 1.75014 cumulative IPC: 1.46752 (Simulation time: 0 hr 24 min 41 sec) 
Heartbeat CPU 0 instructions: 580000000 cycles: 316855222 heartbeat IPC: 1.59554 cumulative IPC: 1.47063 (Simulation time: 0 hr 25 min 10 sec) 
Heartbeat CPU 0 instructions: 590000001 cycles: 323095304 heartbeat IPC: 1.60254 cumulative IPC: 1.47374 (Simulation time: 0 hr 25 min 39 sec) 
Heartbeat CPU 0 instructions: 600000004 cycles: 329319636 heartbeat IPC: 1.6066 cumulative IPC: 1.47679 (Simulation time: 0 hr 26 min 9 sec) 
Heartbeat CPU 0 instructions: 610000003 cycles: 333017832 heartbeat IPC: 2.70402 cumulative IPC: 1.49332 (Simulation time: 0 hr 26 min 31 sec) 
Heartbeat CPU 0 instructions: 620000003 cycles: 335682714 heartbeat IPC: 3.75251 cumulative IPC: 1.51504 (Simulation time: 0 hr 26 min 53 sec) 
Heartbeat CPU 0 instructions: 630000003 cycles: 342239099 heartbeat IPC: 1.52523 cumulative IPC: 1.51527 (Simulation time: 0 hr 27 min 20 sec) 
Heartbeat CPU 0 instructions: 640000002 cycles: 348374912 heartbeat IPC: 1.62978 cumulative IPC: 1.5177 (Simulation time: 0 hr 27 min 50 sec) 
Heartbeat CPU 0 instructions: 650000002 cycles: 355080830 heartbeat IPC: 1.49122 cumulative IPC: 1.5171 (Simulation time: 0 hr 28 min 15 sec) 
Heartbeat CPU 0 instructions: 660000003 cycles: 360760890 heartbeat IPC: 1.76055 cumulative IPC: 1.52167 (Simulation time: 0 hr 28 min 50 sec) 
Heartbeat CPU 0 instructions: 670000003 cycles: 366618364 heartbeat IPC: 1.70722 cumulative IPC: 1.5252 (Simulation time: 0 hr 29 min 24 sec) 
Heartbeat CPU 0 instructions: 680000002 cycles: 373177059 heartbeat IPC: 1.52469 cumulative IPC: 1.52519 (Simulation time: 0 hr 29 min 48 sec) 
Heartbeat CPU 0 instructions: 690000001 cycles: 380024432 heartbeat IPC: 1.46041 cumulative IPC: 1.52381 (Simulation time: 0 hr 30 min 11 sec) 
Heartbeat CPU 0 instructions: 700000001 cycles: 387160197 heartbeat IPC: 1.40139 cumulative IPC: 1.52115 (Simulation time: 0 hr 30 min 35 sec) 
Finished CPU 0 instructions: 500000003 cycles: 328698101 cumulative IPC: 1.52115 (Simulation time: 0 hr 30 min 35 sec) 

ChampSim completed all CPUs

Region of Interest Statistics

CPU 0 cumulative IPC: 1.52115 instructions: 500000003 cycles: 328698101
cpu0_L1I TOTAL     ACCESS:   19556197  HIT:   19556001  MISS:        196
cpu0_L1I LOAD      ACCESS:   19556197  HIT:   19556001  MISS:        196
cpu0_L1I RFO       ACCESS:          0  HIT:          0  MISS:          0
cpu0_L1I PREFETCH  ACCESS:          0  HIT:          0  MISS:          0
cpu0_L1I WRITEBACK ACCESS:          0  HIT:          0  MISS:          0
cpu0_L1I TRANSLATION ACCESS:          0  HIT:          0  MISS:          0
cpu0_L1I PREFETCH  REQUESTED:          0  ISSUED:          0  USEFUL:          0  USELESS:          0
cpu0_L1I AVERAGE MISS LATENCY: 100.087 cycles
cpu0_DTLB TOTAL     ACCESS:  121923968  HIT:  121230761  MISS:     693207
cpu0_DTLB LOAD      ACCESS:   87441741  HIT:   87263275  MISS:     178466
cpu0_DTLB RFO       ACCESS:   34482227  HIT:   33967486  MISS:     514741
cpu0_DTLB PREFETCH  ACCESS:          0  HIT:          0  MISS:          0
cpu0_DTLB WRITEBACK ACCESS:          0  HIT:          0  MISS:          0
cpu0_DTLB TRANSLATION ACCESS:          0  HIT:          0  MISS:          0
cpu0_DTLB PREFETCH  REQUESTED:          0  ISSUED:          0  USEFUL:          0  USELESS:          0
cpu0_DTLB AVERAGE MISS LATENCY: 9.21348 cycles
cpu0_ITLB TOTAL     ACCESS:   31194980  HIT:   31194977  MISS:          3
cpu0_ITLB LOAD      ACCESS:   31194980  HIT:   31194977  MISS:          3
cpu0_ITLB RFO       ACCESS:          0  HIT:          0  MISS:          0
cpu0_ITLB PREFETCH  ACCESS:          0  HIT:          0  MISS:          0
cpu0_ITLB WRITEBACK ACCESS:          0  HIT:          0  MISS:          0
cpu0_ITLB TRANSLATION ACCESS:          0  HIT:          0  MISS:          0
cpu0_ITLB PREFETCH  REQUESTED:          0  ISSUED:          0  USEFUL:          0  USELESS:          0
cpu0_ITLB AVERAGE MISS LATENCY: 224.333 cycles
cpu0_STLB TOTAL     ACCESS:     693210  HIT:     692653  MISS:        557
cpu0_STLB LOAD      ACCESS:     178469  HIT:     177982  MISS:        487
cpu0_STLB RFO       ACCESS:     514741  HIT:     514671  MISS:         70
cpu0_STLB PREFETCH  ACCESS:          0  HIT:          0  MISS:          0
cpu0_STLB WRITEBACK ACCESS:          0  HIT:          0  MISS:          0
cpu0_STLB TRANSLATION ACCESS:          0  HIT:          0  MISS:          0
cpu0_STLB PREFETCH  REQUESTED:          0  ISSUED:          0  USEFUL:          0  USELESS:          0
cpu0_STLB AVERAGE MISS LATENCY: 208.138 cycles
cpu0_L1D TOTAL     ACCESS:  140945881  HIT:  140496831  MISS:     449050
cpu0_L1D LOAD      ACCESS:   83183989  HIT:   82973124  MISS:     210865
cpu0_L1D RFO       ACCESS:   57761335  HIT:   57523157  MISS:     238178
cpu0_L1D PREFETCH  ACCESS:          0  HIT:          0  MISS:          0
cpu0_L1D WRITEBACK ACCESS:          0  HIT:          0  MISS:          0
cpu0_L1D TRANSLATION ACCESS:        557  HIT:        550  MISS:          7
cpu0_L1D PREFETCH  REQUESTED:          0  ISSUED:          0  USEFUL:          0  USELESS:          0
cpu0_L1D AVERAGE MISS LATENCY: 13.7962 cycles
cpu0_L2C TOTAL     ACCESS:     761228  HIT:     725907  MISS:      35321
cpu0_L2C LOAD      ACCESS:     211061  HIT:     179927  MISS:      31134
cpu0_L2C RFO       ACCESS:     238178  HIT:     233991  MISS:       4187
cpu0_L2C PREFETCH  ACCESS:          0  HIT:          0  MISS:          0
cpu0_L2C WRITEBACK ACCESS:     311982  HIT:     311982  MISS:          0
cpu0_L2C TRANSLATION ACCESS:          7  HIT:          7  MISS:          0
cpu0_L2C PREFETCH  REQUESTED:          0  ISSUED:          0  USEFUL:          0  USELESS:          0
cpu0_L2C AVERAGE MISS LATENCY: 35.9877 cycles
LLC TOTAL     ACCESS:      64381  HIT:      28564  MISS:      35817
LLC LOAD      ACCESS:      31134  HIT:      28558  MISS:       2576
LLC RFO       ACCESS:       4187  HIT:          0  MISS:       4187
LLC PREFETCH  ACCESS:      29060  HIT:          6  MISS:      29054
LLC WRITEBACK ACCESS:          0  HIT:          0  MISS:          0
LLC TRANSLATION ACCESS:          0  HIT:          0  MISS:          0
LLC PREFETCH  REQUESTED:      31134  ISSUED:      31134  USEFUL:      30569  USELESS:        251
LLC AVERAGE MISS LATENCY: 66.2283 cycles

DRAM Statistics
 CHANNEL 0
 RQ ROW_BUFFER_HIT:      31148  ROW_BUFFER_MISS:       4669
 DBUS AVG_CONGESTED_CYCLE:    3.71775
 WQ ROW_BUFFER_HIT:          0  ROW_BUFFER_MISS:          0  FULL:          0


CPU 0 Branch Prediction Accuracy: 91.8197% MPKI: 11.9233 Average ROB Occupancy at Mispredict: 31.7857
Branch type MPKI
BRANCH_DIRECT_JUMP: 5.4e-05
BRANCH_INDIRECT: 0
BRANCH_CONDITIONAL: 11.923
BRANCH_DIRECT_CALL: 0.000158
BRANCH_INDIRECT_CALL: 0
BRANCH_RETURN: 0.000156

