/home/caslab/workspace/sim/ChampSim/bin/champsim --warmup_instructions 200000000 --simulation_instructions 500000000/ /home/caslab/workspace/sim/traces/speccpu_by_champsim403.gcc-16B.champsimtrace.xz
start simulation for 403.gcc-16B.champsimtrace.xz

*** ChampSim Multicore Out-of-Order Simulator ***

Warmup Instructions: 200000000
Simulation Instructions: 500000000
Number of CPUs: 1
Off-chip DRAM Size: 4 GiB Channels: 1 Width: 64-bit Data Rate: 3200 MT/s

VirtualMemory physical capacity: 8588881920 num_ppages: 2096895
VirtualMemory page size: 4096 log2_page_size: 12

CPU 0 runs /home/caslab/workspace/sim/traces/speccpu_by_champsim/403.gcc-16B.champsimtrace.xz
CPU 0 Bimodal branch predictor
Basic BTB sets: 1024 ways: 8 indirect buffer size: 4096 RAS size: 64
LLC next line prefetcher
WARNING: The extended signature CACHE::prefetch_line(ip, base_addr, pf_addr, fill_this_level, prefetch_metadata) is deprecated.
WARNING: Use CACHE::prefetch_line(pf_addr, fill_this_level, prefetch_metadata) instead.
Heartbeat CPU 0 instructions: 10000003 cycles: 4044438 heartbeat IPC: 2.47253 cumulative IPC: 2.47253 (Simulation time: 0 hr 0 min 35 sec) 
Heartbeat CPU 0 instructions: 20000001 cycles: 8088442 heartbeat IPC: 2.4728 cumulative IPC: 2.47266 (Simulation time: 0 hr 1 min 10 sec) 
Heartbeat CPU 0 instructions: 30000001 cycles: 12132446 heartbeat IPC: 2.4728 cumulative IPC: 2.47271 (Simulation time: 0 hr 1 min 45 sec) 
Heartbeat CPU 0 instructions: 40000001 cycles: 16176452 heartbeat IPC: 2.4728 cumulative IPC: 2.47273 (Simulation time: 0 hr 2 min 20 sec) 
Heartbeat CPU 0 instructions: 50000001 cycles: 20220456 heartbeat IPC: 2.4728 cumulative IPC: 2.47274 (Simulation time: 0 hr 2 min 55 sec) 
Heartbeat CPU 0 instructions: 60000002 cycles: 24264460 heartbeat IPC: 2.4728 cumulative IPC: 2.47275 (Simulation time: 0 hr 3 min 31 sec) 
Heartbeat CPU 0 instructions: 70000001 cycles: 28352029 heartbeat IPC: 2.44644 cumulative IPC: 2.46896 (Simulation time: 0 hr 4 min 6 sec) 
Heartbeat CPU 0 instructions: 80000001 cycles: 32366338 heartbeat IPC: 2.49109 cumulative IPC: 2.4717 (Simulation time: 0 hr 4 min 41 sec) 
Heartbeat CPU 0 instructions: 90000004 cycles: 36453657 heartbeat IPC: 2.44659 cumulative IPC: 2.46889 (Simulation time: 0 hr 5 min 16 sec) 
Heartbeat CPU 0 instructions: 100000004 cycles: 40483443 heartbeat IPC: 2.48152 cumulative IPC: 2.47015 (Simulation time: 0 hr 5 min 50 sec) 
Heartbeat CPU 0 instructions: 110000000 cycles: 44541670 heartbeat IPC: 2.46413 cumulative IPC: 2.4696 (Simulation time: 0 hr 6 min 25 sec) 
Heartbeat CPU 0 instructions: 120000002 cycles: 48585675 heartbeat IPC: 2.4728 cumulative IPC: 2.46986 (Simulation time: 0 hr 7 min 0 sec) 
Heartbeat CPU 0 instructions: 130000001 cycles: 52629681 heartbeat IPC: 2.4728 cumulative IPC: 2.47009 (Simulation time: 0 hr 7 min 35 sec) 
Heartbeat CPU 0 instructions: 140000000 cycles: 56673687 heartbeat IPC: 2.4728 cumulative IPC: 2.47028 (Simulation time: 0 hr 8 min 10 sec) 
Heartbeat CPU 0 instructions: 150000001 cycles: 60717695 heartbeat IPC: 2.47279 cumulative IPC: 2.47045 (Simulation time: 0 hr 8 min 46 sec) 
Heartbeat CPU 0 instructions: 160000001 cycles: 64704516 heartbeat IPC: 2.50826 cumulative IPC: 2.47278 (Simulation time: 0 hr 9 min 20 sec) 
Heartbeat CPU 0 instructions: 170000003 cycles: 68748519 heartbeat IPC: 2.4728 cumulative IPC: 2.47278 (Simulation time: 0 hr 9 min 55 sec) 
Heartbeat CPU 0 instructions: 180000000 cycles: 72792525 heartbeat IPC: 2.47279 cumulative IPC: 2.47278 (Simulation time: 0 hr 10 min 31 sec) 
Heartbeat CPU 0 instructions: 190000002 cycles: 76779345 heartbeat IPC: 2.50827 cumulative IPC: 2.47462 (Simulation time: 0 hr 11 min 6 sec) 
Heartbeat CPU 0 instructions: 200000001 cycles: 80766164 heartbeat IPC: 2.50827 cumulative IPC: 2.47628 (Simulation time: 0 hr 11 min 40 sec) 

Warmup complete CPU 0 instructions: 200000001 cycles: 80766164 (Simulation time: 0 hr 11 min 40 sec) 

Heartbeat CPU 0 instructions: 210000000 cycles: 85741843 heartbeat IPC: 2.00978 cumulative IPC: 2.00978 (Simulation time: 0 hr 12 min 15 sec) 
Heartbeat CPU 0 instructions: 220000000 cycles: 90540556 heartbeat IPC: 2.08389 cumulative IPC: 2.04616 (Simulation time: 0 hr 12 min 50 sec) 
Heartbeat CPU 0 instructions: 230000003 cycles: 95055042 heartbeat IPC: 2.21509 cumulative IPC: 2.09954 (Simulation time: 0 hr 13 min 25 sec) 
Heartbeat CPU 0 instructions: 240000000 cycles: 99613765 heartbeat IPC: 2.1936 cumulative IPC: 2.12229 (Simulation time: 0 hr 14 min 1 sec) 
Heartbeat CPU 0 instructions: 250000002 cycles: 104171174 heartbeat IPC: 2.19423 cumulative IPC: 2.13629 (Simulation time: 0 hr 14 min 37 sec) 
Heartbeat CPU 0 instructions: 260000000 cycles: 108760024 heartbeat IPC: 2.17919 cumulative IPC: 2.14333 (Simulation time: 0 hr 15 min 13 sec) 
Heartbeat CPU 0 instructions: 270000001 cycles: 113288052 heartbeat IPC: 2.20847 cumulative IPC: 2.1524 (Simulation time: 0 hr 15 min 48 sec) 
Heartbeat CPU 0 instructions: 280000001 cycles: 117926846 heartbeat IPC: 2.15573 cumulative IPC: 2.15281 (Simulation time: 0 hr 16 min 24 sec) 
Heartbeat CPU 0 instructions: 290000003 cycles: 122481103 heartbeat IPC: 2.19575 cumulative IPC: 2.1575 (Simulation time: 0 hr 17 min 0 sec) 
Heartbeat CPU 0 instructions: 300000000 cycles: 126976188 heartbeat IPC: 2.22465 cumulative IPC: 2.16403 (Simulation time: 0 hr 17 min 35 sec) 
Heartbeat CPU 0 instructions: 310000001 cycles: 131501454 heartbeat IPC: 2.20982 cumulative IPC: 2.16812 (Simulation time: 0 hr 18 min 11 sec) 
Heartbeat CPU 0 instructions: 320000002 cycles: 136185176 heartbeat IPC: 2.13505 cumulative IPC: 2.16532 (Simulation time: 0 hr 18 min 46 sec) 
Heartbeat CPU 0 instructions: 330000002 cycles: 140829836 heartbeat IPC: 2.15301 cumulative IPC: 2.16437 (Simulation time: 0 hr 19 min 21 sec) 
Heartbeat CPU 0 instructions: 340000004 cycles: 145445324 heartbeat IPC: 2.16662 cumulative IPC: 2.16453 (Simulation time: 0 hr 19 min 57 sec) 
Heartbeat CPU 0 instructions: 350000000 cycles: 149925907 heartbeat IPC: 2.23185 cumulative IPC: 2.16889 (Simulation time: 0 hr 20 min 33 sec) 
Heartbeat CPU 0 instructions: 360000001 cycles: 154418270 heartbeat IPC: 2.226 cumulative IPC: 2.17238 (Simulation time: 0 hr 21 min 9 sec) 
Heartbeat CPU 0 instructions: 370000004 cycles: 158880052 heartbeat IPC: 2.24126 cumulative IPC: 2.17631 (Simulation time: 0 hr 21 min 44 sec) 
Heartbeat CPU 0 instructions: 380000000 cycles: 163474957 heartbeat IPC: 2.17632 cumulative IPC: 2.17631 (Simulation time: 0 hr 22 min 20 sec) 
Heartbeat CPU 0 instructions: 390000000 cycles: 167949337 heartbeat IPC: 2.23495 cumulative IPC: 2.17932 (Simulation time: 0 hr 22 min 56 sec) 
Heartbeat CPU 0 instructions: 400000003 cycles: 172466264 heartbeat IPC: 2.2139 cumulative IPC: 2.18102 (Simulation time: 0 hr 23 min 32 sec) 
Heartbeat CPU 0 instructions: 410000001 cycles: 177007060 heartbeat IPC: 2.20226 cumulative IPC: 2.18202 (Simulation time: 0 hr 24 min 7 sec) 
Heartbeat CPU 0 instructions: 420000001 cycles: 197874999 heartbeat IPC: 0.479204 cumulative IPC: 1.87859 (Simulation time: 0 hr 24 min 57 sec) 
Heartbeat CPU 0 instructions: 430000004 cycles: 215036966 heartbeat IPC: 0.582684 cumulative IPC: 1.71296 (Simulation time: 0 hr 25 min 34 sec) 
Heartbeat CPU 0 instructions: 440000003 cycles: 226921970 heartbeat IPC: 0.841396 cumulative IPC: 1.64208 (Simulation time: 0 hr 26 min 0 sec) 
Heartbeat CPU 0 instructions: 450000000 cycles: 237513558 heartbeat IPC: 0.944145 cumulative IPC: 1.59492 (Simulation time: 0 hr 26 min 28 sec) 
Heartbeat CPU 0 instructions: 460000000 cycles: 246508019 heartbeat IPC: 1.1118 cumulative IPC: 1.5687 (Simulation time: 0 hr 26 min 57 sec) 
Heartbeat CPU 0 instructions: 470000002 cycles: 257711213 heartbeat IPC: 0.892603 cumulative IPC: 1.5259 (Simulation time: 0 hr 27 min 24 sec) 
Heartbeat CPU 0 instructions: 480000002 cycles: 269577581 heartbeat IPC: 0.842718 cumulative IPC: 1.48296 (Simulation time: 0 hr 27 min 51 sec) 
Heartbeat CPU 0 instructions: 490000000 cycles: 277318758 heartbeat IPC: 1.29179 cumulative IPC: 1.47543 (Simulation time: 0 hr 28 min 19 sec) 
Heartbeat CPU 0 instructions: 500000000 cycles: 288427887 heartbeat IPC: 0.900161 cumulative IPC: 1.44466 (Simulation time: 0 hr 28 min 47 sec) 
Heartbeat CPU 0 instructions: 510000004 cycles: 300220330 heartbeat IPC: 0.848001 cumulative IPC: 1.4126 (Simulation time: 0 hr 29 min 14 sec) 
Heartbeat CPU 0 instructions: 520000003 cycles: 309396739 heartbeat IPC: 1.08975 cumulative IPC: 1.39964 (Simulation time: 0 hr 29 min 42 sec) 
Heartbeat CPU 0 instructions: 530000000 cycles: 319070046 heartbeat IPC: 1.03377 cumulative IPC: 1.38479 (Simulation time: 0 hr 30 min 11 sec) 
Heartbeat CPU 0 instructions: 540000000 cycles: 330804481 heartbeat IPC: 0.852193 cumulative IPC: 1.35979 (Simulation time: 0 hr 30 min 37 sec) 
Heartbeat CPU 0 instructions: 550000003 cycles: 341432693 heartbeat IPC: 0.940892 cumulative IPC: 1.34271 (Simulation time: 0 hr 31 min 5 sec) 
Heartbeat CPU 0 instructions: 560000003 cycles: 350217848 heartbeat IPC: 1.13828 cumulative IPC: 1.33605 (Simulation time: 0 hr 31 min 34 sec) 
Heartbeat CPU 0 instructions: 570000001 cycles: 361332699 heartbeat IPC: 0.899697 cumulative IPC: 1.31876 (Simulation time: 0 hr 32 min 1 sec) 
Heartbeat CPU 0 instructions: 580000004 cycles: 373136955 heartbeat IPC: 0.847152 cumulative IPC: 1.29972 (Simulation time: 0 hr 32 min 28 sec) 
Heartbeat CPU 0 instructions: 590000004 cycles: 380987739 heartbeat IPC: 1.27376 cumulative IPC: 1.29904 (Simulation time: 0 hr 32 min 56 sec) 
Heartbeat CPU 0 instructions: 600000001 cycles: 391784958 heartbeat IPC: 0.926164 cumulative IPC: 1.2861 (Simulation time: 0 hr 33 min 24 sec) 
Heartbeat CPU 0 instructions: 610000003 cycles: 403439918 heartbeat IPC: 0.858004 cumulative IPC: 1.27063 (Simulation time: 0 hr 33 min 50 sec) 
Heartbeat CPU 0 instructions: 620000000 cycles: 412827934 heartbeat IPC: 1.06519 cumulative IPC: 1.26482 (Simulation time: 0 hr 34 min 19 sec) 
Heartbeat CPU 0 instructions: 630000001 cycles: 422158543 heartbeat IPC: 1.07174 cumulative IPC: 1.25955 (Simulation time: 0 hr 34 min 49 sec) 
Heartbeat CPU 0 instructions: 640000003 cycles: 433759479 heartbeat IPC: 0.862 cumulative IPC: 1.24648 (Simulation time: 0 hr 35 min 15 sec) 
Heartbeat CPU 0 instructions: 650000003 cycles: 444525494 heartbeat IPC: 0.928849 cumulative IPC: 1.23708 (Simulation time: 0 hr 35 min 43 sec) 
Heartbeat CPU 0 instructions: 660000000 cycles: 452984138 heartbeat IPC: 1.18222 cumulative IPC: 1.23583 (Simulation time: 0 hr 36 min 12 sec) 
Heartbeat CPU 0 instructions: 670000004 cycles: 464011578 heartbeat IPC: 0.906829 cumulative IPC: 1.22637 (Simulation time: 0 hr 36 min 38 sec) 
Heartbeat CPU 0 instructions: 680000002 cycles: 475627714 heartbeat IPC: 0.860871 cumulative IPC: 1.21562 (Simulation time: 0 hr 37 min 5 sec) 
Heartbeat CPU 0 instructions: 690000000 cycles: 483628787 heartbeat IPC: 1.24983 cumulative IPC: 1.2163 (Simulation time: 0 hr 37 min 34 sec) 
Heartbeat CPU 0 instructions: 700000000 cycles: 494196948 heartbeat IPC: 0.946238 cumulative IPC: 1.20939 (Simulation time: 0 hr 38 min 2 sec) 
Finished CPU 0 instructions: 500000002 cycles: 413430785 cumulative IPC: 1.20939 (Simulation time: 0 hr 38 min 2 sec) 

ChampSim completed all CPUs

Region of Interest Statistics

CPU 0 cumulative IPC: 1.20939 instructions: 500000002 cycles: 413430785
cpu0_L1I TOTAL     ACCESS:   16613677  HIT:   16613519  MISS:        158
cpu0_L1I LOAD      ACCESS:   16613677  HIT:   16613519  MISS:        158
cpu0_L1I RFO       ACCESS:          0  HIT:          0  MISS:          0
cpu0_L1I PREFETCH  ACCESS:          0  HIT:          0  MISS:          0
cpu0_L1I WRITEBACK ACCESS:          0  HIT:          0  MISS:          0
cpu0_L1I TRANSLATION ACCESS:          0  HIT:          0  MISS:          0
cpu0_L1I PREFETCH  REQUESTED:          0  ISSUED:          0  USEFUL:          0  USELESS:          0
cpu0_L1I AVERAGE MISS LATENCY: 125.228 cycles
cpu0_DTLB TOTAL     ACCESS:   99230926  HIT:   98772572  MISS:     458354
cpu0_DTLB LOAD      ACCESS:   48747363  HIT:   48396639  MISS:     350724
cpu0_DTLB RFO       ACCESS:   50483563  HIT:   50375933  MISS:     107630
cpu0_DTLB PREFETCH  ACCESS:          0  HIT:          0  MISS:          0
cpu0_DTLB WRITEBACK ACCESS:          0  HIT:          0  MISS:          0
cpu0_DTLB TRANSLATION ACCESS:          0  HIT:          0  MISS:          0
cpu0_DTLB PREFETCH  REQUESTED:          0  ISSUED:          0  USEFUL:          0  USELESS:          0
cpu0_DTLB AVERAGE MISS LATENCY: 15.5882 cycles
cpu0_ITLB TOTAL     ACCESS:   44469687  HIT:   44469673  MISS:         14
cpu0_ITLB LOAD      ACCESS:   44469687  HIT:   44469673  MISS:         14
cpu0_ITLB RFO       ACCESS:          0  HIT:          0  MISS:          0
cpu0_ITLB PREFETCH  ACCESS:          0  HIT:          0  MISS:          0
cpu0_ITLB WRITEBACK ACCESS:          0  HIT:          0  MISS:          0
cpu0_ITLB TRANSLATION ACCESS:          0  HIT:          0  MISS:          0
cpu0_ITLB PREFETCH  REQUESTED:          0  ISSUED:          0  USEFUL:          0  USELESS:          0
cpu0_ITLB AVERAGE MISS LATENCY: 218.571 cycles
cpu0_STLB TOTAL     ACCESS:     458368  HIT:     353646  MISS:     104722
cpu0_STLB LOAD      ACCESS:     350738  HIT:     259954  MISS:      90784
cpu0_STLB RFO       ACCESS:     107630  HIT:      93692  MISS:      13938
cpu0_STLB PREFETCH  ACCESS:          0  HIT:          0  MISS:          0
cpu0_STLB WRITEBACK ACCESS:          0  HIT:          0  MISS:          0
cpu0_STLB TRANSLATION ACCESS:          0  HIT:          0  MISS:          0
cpu0_STLB PREFETCH  REQUESTED:          0  ISSUED:          0  USEFUL:          0  USELESS:          0
cpu0_STLB AVERAGE MISS LATENCY: 28.8524 cycles
cpu0_L1D TOTAL     ACCESS:  159033576  HIT:  148190885  MISS:   10842691
cpu0_L1D LOAD      ACCESS:   44472179  HIT:   37058999  MISS:    7413180
cpu0_L1D RFO       ACCESS:  114456738  HIT:  111027491  MISS:    3429247
cpu0_L1D PREFETCH  ACCESS:          0  HIT:          0  MISS:          0
cpu0_L1D WRITEBACK ACCESS:          0  HIT:          0  MISS:          0
cpu0_L1D TRANSLATION ACCESS:     104659  HIT:     104395  MISS:        264
cpu0_L1D PREFETCH  REQUESTED:          0  ISSUED:          0  USEFUL:          0  USELESS:          0
cpu0_L1D AVERAGE MISS LATENCY: 17.7146 cycles
cpu0_L2C TOTAL     ACCESS:   15732285  HIT:   15382792  MISS:     349493
cpu0_L2C LOAD      ACCESS:    7413338  HIT:    7254032  MISS:     159306
cpu0_L2C RFO       ACCESS:    3429247  HIT:    3239061  MISS:     190186
cpu0_L2C PREFETCH  ACCESS:          0  HIT:          0  MISS:          0
cpu0_L2C WRITEBACK ACCESS:    4889436  HIT:    4889436  MISS:          0
cpu0_L2C TRANSLATION ACCESS:        264  HIT:        263  MISS:          1
cpu0_L2C PREFETCH  REQUESTED:          0  ISSUED:          0  USEFUL:          0  USELESS:          0
cpu0_L2C AVERAGE MISS LATENCY: 207.438 cycles
LLC TOTAL     ACCESS:     506636  HIT:      68680  MISS:     437956
LLC LOAD      ACCESS:     159306  HIT:      29514  MISS:     129792
LLC RFO       ACCESS:     190186  HIT:        809  MISS:     189377
LLC PREFETCH  ACCESS:     156425  HIT:      37689  MISS:     118736
LLC WRITEBACK ACCESS:        718  HIT:        668  MISS:         50
LLC TRANSLATION ACCESS:          1  HIT:          0  MISS:          1
LLC PREFETCH  REQUESTED:     159306  ISSUED:     159306  USEFUL:      29371  USELESS:      98212
LLC AVERAGE MISS LATENCY: 191.159 cycles

DRAM Statistics
 CHANNEL 0
 RQ ROW_BUFFER_HIT:     163585  ROW_BUFFER_MISS:     274321
 DBUS AVG_CONGESTED_CYCLE:    3.86724
 WQ ROW_BUFFER_HIT:          3  ROW_BUFFER_MISS:         17  FULL:          0


CPU 0 Branch Prediction Accuracy: 94.3703% MPKI: 11.3041 Average ROB Occupancy at Mispredict: 40.835
Branch type MPKI
BRANCH_DIRECT_JUMP: 0.000114
BRANCH_INDIRECT: 0.015448
BRANCH_CONDITIONAL: 11.2881
BRANCH_DIRECT_CALL: 0.00011
BRANCH_INDIRECT_CALL: 0.000268
BRANCH_RETURN: 0.000104

