/home/caslab/workspace/sim/ChampSim/bin/champsim --warmup_instructions 200000000 --simulation_instructions 500000000/ /home/caslab/workspace/sim/traces/speccpu_by_champsim403.gcc-48B.champsimtrace.xz
start simulation for 403.gcc-48B.champsimtrace.xz

*** ChampSim Multicore Out-of-Order Simulator ***

Warmup Instructions: 200000000
Simulation Instructions: 500000000
Number of CPUs: 1
Off-chip DRAM Size: 4 GiB Channels: 1 Width: 64-bit Data Rate: 3200 MT/s

VirtualMemory physical capacity: 8588881920 num_ppages: 2096895
VirtualMemory page size: 4096 log2_page_size: 12

CPU 0 runs /home/caslab/workspace/sim/traces/speccpu_by_champsim/403.gcc-48B.champsimtrace.xz
CPU 0 Bimodal branch predictor
Basic BTB sets: 1024 ways: 8 indirect buffer size: 4096 RAS size: 64
LLC next line prefetcher
WARNING: The extended signature CACHE::prefetch_line(ip, base_addr, pf_addr, fill_this_level, prefetch_metadata) is deprecated.
WARNING: Use CACHE::prefetch_line(pf_addr, fill_this_level, prefetch_metadata) instead.
Heartbeat CPU 0 instructions: 10000003 cycles: 2500145 heartbeat IPC: 3.99977 cumulative IPC: 3.99977 (Simulation time: 0 hr 0 min 20 sec) 
Heartbeat CPU 0 instructions: 20000003 cycles: 5000176 heartbeat IPC: 3.99995 cumulative IPC: 3.99986 (Simulation time: 0 hr 0 min 40 sec) 
Heartbeat CPU 0 instructions: 30000003 cycles: 7500257 heartbeat IPC: 3.99987 cumulative IPC: 3.99986 (Simulation time: 0 hr 1 min 0 sec) 
Heartbeat CPU 0 instructions: 40000003 cycles: 10000288 heartbeat IPC: 3.99995 cumulative IPC: 3.99989 (Simulation time: 0 hr 1 min 20 sec) 
Heartbeat CPU 0 instructions: 50000000 cycles: 12500366 heartbeat IPC: 3.99987 cumulative IPC: 3.99988 (Simulation time: 0 hr 1 min 40 sec) 
Heartbeat CPU 0 instructions: 60000000 cycles: 15000650 heartbeat IPC: 3.99955 cumulative IPC: 3.99983 (Simulation time: 0 hr 2 min 0 sec) 
Heartbeat CPU 0 instructions: 70000001 cycles: 17500689 heartbeat IPC: 3.99994 cumulative IPC: 3.99984 (Simulation time: 0 hr 2 min 20 sec) 
Heartbeat CPU 0 instructions: 80000002 cycles: 20000770 heartbeat IPC: 3.99987 cumulative IPC: 3.99985 (Simulation time: 0 hr 2 min 40 sec) 
Heartbeat CPU 0 instructions: 90000001 cycles: 22500799 heartbeat IPC: 3.99995 cumulative IPC: 3.99986 (Simulation time: 0 hr 3 min 0 sec) 
Heartbeat CPU 0 instructions: 100000002 cycles: 25000954 heartbeat IPC: 3.99975 cumulative IPC: 3.99985 (Simulation time: 0 hr 3 min 20 sec) 
Heartbeat CPU 0 instructions: 110000002 cycles: 27501176 heartbeat IPC: 3.99964 cumulative IPC: 3.99983 (Simulation time: 0 hr 3 min 40 sec) 
Heartbeat CPU 0 instructions: 120000000 cycles: 30001215 heartbeat IPC: 3.99994 cumulative IPC: 3.99984 (Simulation time: 0 hr 4 min 1 sec) 
Heartbeat CPU 0 instructions: 130000002 cycles: 32501311 heartbeat IPC: 3.99985 cumulative IPC: 3.99984 (Simulation time: 0 hr 4 min 21 sec) 
Heartbeat CPU 0 instructions: 140000001 cycles: 35001351 heartbeat IPC: 3.99994 cumulative IPC: 3.99985 (Simulation time: 0 hr 4 min 41 sec) 
Heartbeat CPU 0 instructions: 150000003 cycles: 37501437 heartbeat IPC: 3.99986 cumulative IPC: 3.99985 (Simulation time: 0 hr 5 min 1 sec) 
Heartbeat CPU 0 instructions: 160000000 cycles: 40001467 heartbeat IPC: 3.99995 cumulative IPC: 3.99985 (Simulation time: 0 hr 5 min 21 sec) 
Heartbeat CPU 0 instructions: 170000002 cycles: 42501561 heartbeat IPC: 3.99985 cumulative IPC: 3.99985 (Simulation time: 0 hr 5 min 41 sec) 
Heartbeat CPU 0 instructions: 180000002 cycles: 45001582 heartbeat IPC: 3.99997 cumulative IPC: 3.99986 (Simulation time: 0 hr 6 min 1 sec) 
Heartbeat CPU 0 instructions: 190000003 cycles: 47501899 heartbeat IPC: 3.99949 cumulative IPC: 3.99984 (Simulation time: 0 hr 6 min 21 sec) 
Heartbeat CPU 0 instructions: 200000002 cycles: 50002064 heartbeat IPC: 3.99974 cumulative IPC: 3.99984 (Simulation time: 0 hr 6 min 41 sec) 

Warmup complete CPU 0 instructions: 200000002 cycles: 50002064 (Simulation time: 0 hr 6 min 41 sec) 

Heartbeat CPU 0 instructions: 210000003 cycles: 56618302 heartbeat IPC: 1.51143 cumulative IPC: 1.51143 (Simulation time: 0 hr 7 min 18 sec) 
Heartbeat CPU 0 instructions: 220000000 cycles: 63237423 heartbeat IPC: 1.51077 cumulative IPC: 1.5111 (Simulation time: 0 hr 7 min 54 sec) 
Heartbeat CPU 0 instructions: 230000000 cycles: 69863728 heartbeat IPC: 1.50914 cumulative IPC: 1.51045 (Simulation time: 0 hr 8 min 31 sec) 
Heartbeat CPU 0 instructions: 240000003 cycles: 76457879 heartbeat IPC: 1.5165 cumulative IPC: 1.51196 (Simulation time: 0 hr 9 min 8 sec) 
Heartbeat CPU 0 instructions: 250000003 cycles: 83043732 heartbeat IPC: 1.51841 cumulative IPC: 1.51324 (Simulation time: 0 hr 9 min 45 sec) 
Heartbeat CPU 0 instructions: 260000002 cycles: 89648316 heartbeat IPC: 1.5141 cumulative IPC: 1.51338 (Simulation time: 0 hr 10 min 22 sec) 
Heartbeat CPU 0 instructions: 270000003 cycles: 96241011 heartbeat IPC: 1.51683 cumulative IPC: 1.51388 (Simulation time: 0 hr 10 min 59 sec) 
Heartbeat CPU 0 instructions: 280000000 cycles: 102853648 heartbeat IPC: 1.51226 cumulative IPC: 1.51367 (Simulation time: 0 hr 11 min 35 sec) 
Heartbeat CPU 0 instructions: 290000001 cycles: 109435212 heartbeat IPC: 1.5194 cumulative IPC: 1.51431 (Simulation time: 0 hr 12 min 11 sec) 
Heartbeat CPU 0 instructions: 300000001 cycles: 116030093 heartbeat IPC: 1.51633 cumulative IPC: 1.51451 (Simulation time: 0 hr 12 min 48 sec) 
Heartbeat CPU 0 instructions: 310000002 cycles: 122637169 heartbeat IPC: 1.51353 cumulative IPC: 1.51442 (Simulation time: 0 hr 13 min 25 sec) 
Heartbeat CPU 0 instructions: 320000000 cycles: 129230654 heartbeat IPC: 1.51665 cumulative IPC: 1.5146 (Simulation time: 0 hr 14 min 1 sec) 
Heartbeat CPU 0 instructions: 330000004 cycles: 135840584 heartbeat IPC: 1.51288 cumulative IPC: 1.51447 (Simulation time: 0 hr 14 min 38 sec) 
Heartbeat CPU 0 instructions: 340000001 cycles: 142420571 heartbeat IPC: 1.51976 cumulative IPC: 1.51485 (Simulation time: 0 hr 15 min 14 sec) 
Heartbeat CPU 0 instructions: 350000001 cycles: 149025054 heartbeat IPC: 1.51412 cumulative IPC: 1.5148 (Simulation time: 0 hr 15 min 51 sec) 
Heartbeat CPU 0 instructions: 360000004 cycles: 155623863 heartbeat IPC: 1.51543 cumulative IPC: 1.51484 (Simulation time: 0 hr 16 min 27 sec) 
Heartbeat CPU 0 instructions: 370000000 cycles: 162228875 heartbeat IPC: 1.514 cumulative IPC: 1.51479 (Simulation time: 0 hr 17 min 4 sec) 
Heartbeat CPU 0 instructions: 380000000 cycles: 168841440 heartbeat IPC: 1.51227 cumulative IPC: 1.51465 (Simulation time: 0 hr 17 min 40 sec) 
Heartbeat CPU 0 instructions: 390000004 cycles: 175412732 heartbeat IPC: 1.52177 cumulative IPC: 1.51502 (Simulation time: 0 hr 18 min 16 sec) 
Heartbeat CPU 0 instructions: 400000001 cycles: 182031952 heartbeat IPC: 1.51075 cumulative IPC: 1.51481 (Simulation time: 0 hr 18 min 52 sec) 
Heartbeat CPU 0 instructions: 410000000 cycles: 188626668 heartbeat IPC: 1.51637 cumulative IPC: 1.51488 (Simulation time: 0 hr 19 min 29 sec) 
Heartbeat CPU 0 instructions: 420000001 cycles: 195262235 heartbeat IPC: 1.50703 cumulative IPC: 1.51452 (Simulation time: 0 hr 20 min 5 sec) 
Heartbeat CPU 0 instructions: 430000002 cycles: 201871185 heartbeat IPC: 1.5131 cumulative IPC: 1.51446 (Simulation time: 0 hr 20 min 42 sec) 
Heartbeat CPU 0 instructions: 440000000 cycles: 208474861 heartbeat IPC: 1.51431 cumulative IPC: 1.51446 (Simulation time: 0 hr 21 min 19 sec) 
Heartbeat CPU 0 instructions: 450000003 cycles: 215072406 heartbeat IPC: 1.51572 cumulative IPC: 1.51451 (Simulation time: 0 hr 21 min 57 sec) 
Heartbeat CPU 0 instructions: 460000000 cycles: 221626652 heartbeat IPC: 1.52573 cumulative IPC: 1.51493 (Simulation time: 0 hr 22 min 34 sec) 
Heartbeat CPU 0 instructions: 470000000 cycles: 235778214 heartbeat IPC: 0.706636 cumulative IPC: 1.45336 (Simulation time: 0 hr 23 min 15 sec) 
Heartbeat CPU 0 instructions: 480000000 cycles: 249817056 heartbeat IPC: 0.712309 cumulative IPC: 1.4013 (Simulation time: 0 hr 23 min 47 sec) 
Heartbeat CPU 0 instructions: 490000000 cycles: 266456598 heartbeat IPC: 0.600978 cumulative IPC: 1.33977 (Simulation time: 0 hr 24 min 20 sec) 
Heartbeat CPU 0 instructions: 500000001 cycles: 283366029 heartbeat IPC: 0.591386 cumulative IPC: 1.28555 (Simulation time: 0 hr 24 min 51 sec) 
Heartbeat CPU 0 instructions: 510000000 cycles: 296896922 heartbeat IPC: 0.739049 cumulative IPC: 1.2556 (Simulation time: 0 hr 25 min 19 sec) 
Heartbeat CPU 0 instructions: 520000002 cycles: 310845927 heartbeat IPC: 0.716897 cumulative IPC: 1.22679 (Simulation time: 0 hr 25 min 53 sec) 
Heartbeat CPU 0 instructions: 530000001 cycles: 318103382 heartbeat IPC: 1.37789 cumulative IPC: 1.23088 (Simulation time: 0 hr 26 min 33 sec) 
Heartbeat CPU 0 instructions: 540000001 cycles: 324452282 heartbeat IPC: 1.57508 cumulative IPC: 1.23884 (Simulation time: 0 hr 27 min 10 sec) 
Heartbeat CPU 0 instructions: 550000001 cycles: 330793902 heartbeat IPC: 1.57688 cumulative IPC: 1.24647 (Simulation time: 0 hr 27 min 47 sec) 
Heartbeat CPU 0 instructions: 560000003 cycles: 337153610 heartbeat IPC: 1.5724 cumulative IPC: 1.25369 (Simulation time: 0 hr 28 min 24 sec) 
Heartbeat CPU 0 instructions: 570000000 cycles: 343484595 heartbeat IPC: 1.57953 cumulative IPC: 1.26072 (Simulation time: 0 hr 29 min 1 sec) 
Heartbeat CPU 0 instructions: 580000003 cycles: 349791879 heartbeat IPC: 1.58547 cumulative IPC: 1.26755 (Simulation time: 0 hr 29 min 38 sec) 
Heartbeat CPU 0 instructions: 590000003 cycles: 356138246 heartbeat IPC: 1.5757 cumulative IPC: 1.27394 (Simulation time: 0 hr 30 min 15 sec) 
Heartbeat CPU 0 instructions: 600000003 cycles: 362481948 heartbeat IPC: 1.57637 cumulative IPC: 1.28008 (Simulation time: 0 hr 30 min 51 sec) 
Heartbeat CPU 0 instructions: 610000000 cycles: 368823670 heartbeat IPC: 1.57686 cumulative IPC: 1.28599 (Simulation time: 0 hr 31 min 28 sec) 
Heartbeat CPU 0 instructions: 620000004 cycles: 375192868 heartbeat IPC: 1.57006 cumulative IPC: 1.29155 (Simulation time: 0 hr 32 min 4 sec) 
Heartbeat CPU 0 instructions: 630000000 cycles: 381557221 heartbeat IPC: 1.57125 cumulative IPC: 1.29692 (Simulation time: 0 hr 32 min 40 sec) 
Heartbeat CPU 0 instructions: 640000000 cycles: 387947586 heartbeat IPC: 1.56486 cumulative IPC: 1.30199 (Simulation time: 0 hr 33 min 16 sec) 
Heartbeat CPU 0 instructions: 650000003 cycles: 394307772 heartbeat IPC: 1.57228 cumulative IPC: 1.30698 (Simulation time: 0 hr 33 min 53 sec) 
Heartbeat CPU 0 instructions: 660000002 cycles: 400678218 heartbeat IPC: 1.56975 cumulative IPC: 1.31175 (Simulation time: 0 hr 34 min 30 sec) 
Heartbeat CPU 0 instructions: 670000002 cycles: 407048653 heartbeat IPC: 1.56975 cumulative IPC: 1.31635 (Simulation time: 0 hr 35 min 6 sec) 
Heartbeat CPU 0 instructions: 680000004 cycles: 413418743 heartbeat IPC: 1.56984 cumulative IPC: 1.3208 (Simulation time: 0 hr 35 min 42 sec) 
Heartbeat CPU 0 instructions: 690000003 cycles: 419788330 heartbeat IPC: 1.56996 cumulative IPC: 1.32509 (Simulation time: 0 hr 36 min 19 sec) 
Heartbeat CPU 0 instructions: 700000000 cycles: 426163113 heartbeat IPC: 1.56868 cumulative IPC: 1.32922 (Simulation time: 0 hr 36 min 55 sec) 
Finished CPU 0 instructions: 500000000 cycles: 376161050 cumulative IPC: 1.32922 (Simulation time: 0 hr 36 min 55 sec) 

ChampSim completed all CPUs

Region of Interest Statistics

CPU 0 cumulative IPC: 1.32922 instructions: 500000000 cycles: 376161050
cpu0_L1I TOTAL     ACCESS:   80976867  HIT:   80976739  MISS:        128
cpu0_L1I LOAD      ACCESS:   80976867  HIT:   80976739  MISS:        128
cpu0_L1I RFO       ACCESS:          0  HIT:          0  MISS:          0
cpu0_L1I PREFETCH  ACCESS:          0  HIT:          0  MISS:          0
cpu0_L1I WRITEBACK ACCESS:          0  HIT:          0  MISS:          0
cpu0_L1I TRANSLATION ACCESS:          0  HIT:          0  MISS:          0
cpu0_L1I PREFETCH  REQUESTED:          0  ISSUED:          0  USEFUL:          0  USELESS:          0
cpu0_L1I AVERAGE MISS LATENCY: 118.352 cycles
cpu0_DTLB TOTAL     ACCESS:  115533467  HIT:  115244271  MISS:     289196
cpu0_DTLB LOAD      ACCESS:   64996278  HIT:   64709642  MISS:     286636
cpu0_DTLB RFO       ACCESS:   50537189  HIT:   50534629  MISS:       2560
cpu0_DTLB PREFETCH  ACCESS:          0  HIT:          0  MISS:          0
cpu0_DTLB WRITEBACK ACCESS:          0  HIT:          0  MISS:          0
cpu0_DTLB TRANSLATION ACCESS:          0  HIT:          0  MISS:          0
cpu0_DTLB PREFETCH  REQUESTED:          0  ISSUED:          0  USEFUL:          0  USELESS:          0
cpu0_DTLB AVERAGE MISS LATENCY: 15.3629 cycles
cpu0_ITLB TOTAL     ACCESS:   35828940  HIT:   35828929  MISS:         11
cpu0_ITLB LOAD      ACCESS:   35828940  HIT:   35828929  MISS:         11
cpu0_ITLB RFO       ACCESS:          0  HIT:          0  MISS:          0
cpu0_ITLB PREFETCH  ACCESS:          0  HIT:          0  MISS:          0
cpu0_ITLB WRITEBACK ACCESS:          0  HIT:          0  MISS:          0
cpu0_ITLB TRANSLATION ACCESS:          0  HIT:          0  MISS:          0
cpu0_ITLB PREFETCH  REQUESTED:          0  ISSUED:          0  USEFUL:          0  USELESS:          0
cpu0_ITLB AVERAGE MISS LATENCY: 220 cycles
cpu0_STLB TOTAL     ACCESS:     289207  HIT:     280013  MISS:       9194
cpu0_STLB LOAD      ACCESS:     286647  HIT:     278574  MISS:       8073
cpu0_STLB RFO       ACCESS:       2560  HIT:       1439  MISS:       1121
cpu0_STLB PREFETCH  ACCESS:          0  HIT:          0  MISS:          0
cpu0_STLB WRITEBACK ACCESS:          0  HIT:          0  MISS:          0
cpu0_STLB TRANSLATION ACCESS:          0  HIT:          0  MISS:          0
cpu0_STLB PREFETCH  REQUESTED:          0  ISSUED:          0  USEFUL:          0  USELESS:          0
cpu0_STLB AVERAGE MISS LATENCY: 199.916 cycles
cpu0_L1D TOTAL     ACCESS:  147605285  HIT:  146685747  MISS:     919538
cpu0_L1D LOAD      ACCESS:   66070069  HIT:   65231431  MISS:     838638
cpu0_L1D RFO       ACCESS:   81526043  HIT:   81445167  MISS:      80876
cpu0_L1D PREFETCH  ACCESS:          0  HIT:          0  MISS:          0
cpu0_L1D WRITEBACK ACCESS:          0  HIT:          0  MISS:          0
cpu0_L1D TRANSLATION ACCESS:       9173  HIT:       9149  MISS:         24
cpu0_L1D PREFETCH  REQUESTED:          0  ISSUED:          0  USEFUL:          0  USELESS:          0
cpu0_L1D AVERAGE MISS LATENCY: 82.4726 cycles
cpu0_L2C TOTAL     ACCESS:    1129042  HIT:     693914  MISS:     435128
cpu0_L2C LOAD      ACCESS:     838765  HIT:     474773  MISS:     363992
cpu0_L2C RFO       ACCESS:      80876  HIT:       9740  MISS:      71136
cpu0_L2C PREFETCH  ACCESS:          0  HIT:          0  MISS:          0
cpu0_L2C WRITEBACK ACCESS:     209377  HIT:     209377  MISS:          0
cpu0_L2C TRANSLATION ACCESS:         24  HIT:         24  MISS:          0
cpu0_L2C PREFETCH  REQUESTED:          0  ISSUED:          0  USEFUL:          0  USELESS:          0
cpu0_L2C AVERAGE MISS LATENCY: 151.036 cycles
LLC TOTAL     ACCESS:     792179  HIT:     155275  MISS:     636904
LLC LOAD      ACCESS:     363992  HIT:      78982  MISS:     285010
LLC RFO       ACCESS:      71136  HIT:          6  MISS:      71130
LLC PREFETCH  ACCESS:     356962  HIT:      76286  MISS:     280676
LLC WRITEBACK ACCESS:         89  HIT:          1  MISS:         88
LLC TRANSLATION ACCESS:          0  HIT:          0  MISS:          0
LLC PREFETCH  REQUESTED:     363992  ISSUED:     363992  USEFUL:      82629  USELESS:     206458
LLC AVERAGE MISS LATENCY: 161.125 cycles

DRAM Statistics
 CHANNEL 0
 RQ ROW_BUFFER_HIT:      71151  ROW_BUFFER_MISS:     565665
 DBUS AVG_CONGESTED_CYCLE:     3.6966
 WQ ROW_BUFFER_HIT:         15  ROW_BUFFER_MISS:         25  FULL:          0


CPU 0 Branch Prediction Accuracy: 98.9536% MPKI: 2.29149 Average ROB Occupancy at Mispredict: 52.1205
Branch type MPKI
BRANCH_DIRECT_JUMP: 8.2e-05
BRANCH_INDIRECT: 0.000116
BRANCH_CONDITIONAL: 2.29034
BRANCH_DIRECT_CALL: 9.6e-05
BRANCH_INDIRECT_CALL: 0.000742
BRANCH_RETURN: 0.00011

