/home/caslab/workspace/sim/ChampSim/bin/champsim --warmup_instructions 200000000 --simulation_instructions 500000000/ /home/caslab/workspace/sim/traces/speccpu_by_champsim410.bwaves-2097B.champsimtrace.xz
start simulation for 410.bwaves-2097B.champsimtrace.xz

*** ChampSim Multicore Out-of-Order Simulator ***

Warmup Instructions: 200000000
Simulation Instructions: 500000000
Number of CPUs: 1
Off-chip DRAM Size: 4 GiB Channels: 1 Width: 64-bit Data Rate: 3200 MT/s

VirtualMemory physical capacity: 8588881920 num_ppages: 2096895
VirtualMemory page size: 4096 log2_page_size: 12

CPU 0 runs /home/caslab/workspace/sim/traces/speccpu_by_champsim/410.bwaves-2097B.champsimtrace.xz
CPU 0 Bimodal branch predictor
Basic BTB sets: 1024 ways: 8 indirect buffer size: 4096 RAS size: 64
LLC next line prefetcher
WARNING: The extended signature CACHE::prefetch_line(ip, base_addr, pf_addr, fill_this_level, prefetch_metadata) is deprecated.
WARNING: Use CACHE::prefetch_line(pf_addr, fill_this_level, prefetch_metadata) instead.
Heartbeat CPU 0 instructions: 10000001 cycles: 4406384 heartbeat IPC: 2.26943 cumulative IPC: 2.26943 (Simulation time: 0 hr 0 min 46 sec) 
Heartbeat CPU 0 instructions: 20000003 cycles: 8812661 heartbeat IPC: 2.26949 cumulative IPC: 2.26946 (Simulation time: 0 hr 1 min 31 sec) 
Heartbeat CPU 0 instructions: 30000000 cycles: 13218899 heartbeat IPC: 2.26951 cumulative IPC: 2.26948 (Simulation time: 0 hr 2 min 17 sec) 
Heartbeat CPU 0 instructions: 40000000 cycles: 17625166 heartbeat IPC: 2.26949 cumulative IPC: 2.26948 (Simulation time: 0 hr 3 min 3 sec) 
Heartbeat CPU 0 instructions: 50000002 cycles: 22031433 heartbeat IPC: 2.2695 cumulative IPC: 2.26948 (Simulation time: 0 hr 3 min 48 sec) 
Heartbeat CPU 0 instructions: 60000003 cycles: 26437678 heartbeat IPC: 2.26951 cumulative IPC: 2.26949 (Simulation time: 0 hr 4 min 34 sec) 
Heartbeat CPU 0 instructions: 70000004 cycles: 30843944 heartbeat IPC: 2.2695 cumulative IPC: 2.26949 (Simulation time: 0 hr 5 min 21 sec) 
Heartbeat CPU 0 instructions: 80000001 cycles: 35250202 heartbeat IPC: 2.2695 cumulative IPC: 2.26949 (Simulation time: 0 hr 6 min 7 sec) 
Heartbeat CPU 0 instructions: 90000000 cycles: 39656470 heartbeat IPC: 2.26949 cumulative IPC: 2.26949 (Simulation time: 0 hr 6 min 53 sec) 
Heartbeat CPU 0 instructions: 100000000 cycles: 44062736 heartbeat IPC: 2.2695 cumulative IPC: 2.26949 (Simulation time: 0 hr 7 min 38 sec) 
Heartbeat CPU 0 instructions: 110000000 cycles: 48468984 heartbeat IPC: 2.2695 cumulative IPC: 2.26949 (Simulation time: 0 hr 8 min 24 sec) 
Heartbeat CPU 0 instructions: 120000001 cycles: 52875240 heartbeat IPC: 2.2695 cumulative IPC: 2.26949 (Simulation time: 0 hr 9 min 10 sec) 
Heartbeat CPU 0 instructions: 130000004 cycles: 57281498 heartbeat IPC: 2.2695 cumulative IPC: 2.26949 (Simulation time: 0 hr 9 min 56 sec) 
Heartbeat CPU 0 instructions: 140000001 cycles: 61687744 heartbeat IPC: 2.26951 cumulative IPC: 2.26949 (Simulation time: 0 hr 10 min 42 sec) 
Heartbeat CPU 0 instructions: 150000000 cycles: 66094017 heartbeat IPC: 2.26949 cumulative IPC: 2.26949 (Simulation time: 0 hr 11 min 27 sec) 
Heartbeat CPU 0 instructions: 160000002 cycles: 70500290 heartbeat IPC: 2.26949 cumulative IPC: 2.26949 (Simulation time: 0 hr 12 min 13 sec) 
Heartbeat CPU 0 instructions: 170000001 cycles: 74906535 heartbeat IPC: 2.26951 cumulative IPC: 2.2695 (Simulation time: 0 hr 12 min 58 sec) 
Heartbeat CPU 0 instructions: 180000002 cycles: 79312803 heartbeat IPC: 2.26949 cumulative IPC: 2.2695 (Simulation time: 0 hr 13 min 44 sec) 
Heartbeat CPU 0 instructions: 190000002 cycles: 83719049 heartbeat IPC: 2.26951 cumulative IPC: 2.2695 (Simulation time: 0 hr 14 min 30 sec) 
Heartbeat CPU 0 instructions: 200000004 cycles: 88125315 heartbeat IPC: 2.2695 cumulative IPC: 2.2695 (Simulation time: 0 hr 15 min 15 sec) 

Warmup complete CPU 0 instructions: 200000004 cycles: 88125315 (Simulation time: 0 hr 15 min 15 sec) 

Heartbeat CPU 0 instructions: 210000003 cycles: 111489511 heartbeat IPC: 0.428005 cumulative IPC: 0.428005 (Simulation time: 0 hr 16 min 46 sec) 
Heartbeat CPU 0 instructions: 220000000 cycles: 134894899 heartbeat IPC: 0.427252 cumulative IPC: 0.427628 (Simulation time: 0 hr 18 min 17 sec) 
Heartbeat CPU 0 instructions: 230000000 cycles: 158259920 heartbeat IPC: 0.42799 cumulative IPC: 0.427749 (Simulation time: 0 hr 19 min 47 sec) 
Heartbeat CPU 0 instructions: 240000000 cycles: 181627452 heartbeat IPC: 0.427944 cumulative IPC: 0.427798 (Simulation time: 0 hr 21 min 18 sec) 
Heartbeat CPU 0 instructions: 250000000 cycles: 204971108 heartbeat IPC: 0.428382 cumulative IPC: 0.427914 (Simulation time: 0 hr 22 min 49 sec) 
Heartbeat CPU 0 instructions: 260000001 cycles: 228331476 heartbeat IPC: 0.428075 cumulative IPC: 0.427941 (Simulation time: 0 hr 24 min 20 sec) 
Heartbeat CPU 0 instructions: 270000000 cycles: 251726258 heartbeat IPC: 0.427446 cumulative IPC: 0.42787 (Simulation time: 0 hr 25 min 51 sec) 
Heartbeat CPU 0 instructions: 280000000 cycles: 275087801 heartbeat IPC: 0.428054 cumulative IPC: 0.427893 (Simulation time: 0 hr 27 min 22 sec) 
Heartbeat CPU 0 instructions: 290000000 cycles: 298477202 heartbeat IPC: 0.427544 cumulative IPC: 0.427854 (Simulation time: 0 hr 28 min 52 sec) 
Heartbeat CPU 0 instructions: 300000002 cycles: 321850580 heartbeat IPC: 0.427837 cumulative IPC: 0.427853 (Simulation time: 0 hr 30 min 23 sec) 
Heartbeat CPU 0 instructions: 310000000 cycles: 345188174 heartbeat IPC: 0.428493 cumulative IPC: 0.427911 (Simulation time: 0 hr 31 min 54 sec) 
Heartbeat CPU 0 instructions: 320000004 cycles: 366469216 heartbeat IPC: 0.469902 cumulative IPC: 0.431121 (Simulation time: 0 hr 33 min 19 sec) 
Heartbeat CPU 0 instructions: 330000002 cycles: 378855713 heartbeat IPC: 0.807331 cumulative IPC: 0.44715 (Simulation time: 0 hr 34 min 20 sec) 
Heartbeat CPU 0 instructions: 340000001 cycles: 384999207 heartbeat IPC: 1.62774 cumulative IPC: 0.471581 (Simulation time: 0 hr 34 min 49 sec) 
Heartbeat CPU 0 instructions: 350000004 cycles: 390334059 heartbeat IPC: 1.87447 cumulative IPC: 0.496346 (Simulation time: 0 hr 35 min 13 sec) 
Heartbeat CPU 0 instructions: 360000003 cycles: 413197674 heartbeat IPC: 0.437376 cumulative IPC: 0.492198 (Simulation time: 0 hr 36 min 42 sec) 
Heartbeat CPU 0 instructions: 370000001 cycles: 436291856 heartbeat IPC: 0.433009 cumulative IPC: 0.488272 (Simulation time: 0 hr 38 min 12 sec) 
Heartbeat CPU 0 instructions: 380000000 cycles: 459760407 heartbeat IPC: 0.426102 cumulative IPC: 0.484346 (Simulation time: 0 hr 39 min 44 sec) 
Heartbeat CPU 0 instructions: 390000001 cycles: 484272358 heartbeat IPC: 0.407964 cumulative IPC: 0.47962 (Simulation time: 0 hr 41 min 19 sec) 
Heartbeat CPU 0 instructions: 400000001 cycles: 510509109 heartbeat IPC: 0.381145 cumulative IPC: 0.473503 (Simulation time: 0 hr 43 min 0 sec) 
Heartbeat CPU 0 instructions: 410000002 cycles: 537153667 heartbeat IPC: 0.375311 cumulative IPC: 0.467676 (Simulation time: 0 hr 44 min 42 sec) 
Heartbeat CPU 0 instructions: 420000004 cycles: 562818977 heartbeat IPC: 0.389631 cumulative IPC: 0.463457 (Simulation time: 0 hr 46 min 21 sec) 
Heartbeat CPU 0 instructions: 430000004 cycles: 587549598 heartbeat IPC: 0.404357 cumulative IPC: 0.46053 (Simulation time: 0 hr 47 min 57 sec) 
Heartbeat CPU 0 instructions: 440000002 cycles: 611627482 heartbeat IPC: 0.415319 cumulative IPC: 0.458451 (Simulation time: 0 hr 49 min 30 sec) 
Heartbeat CPU 0 instructions: 450000003 cycles: 635406988 heartbeat IPC: 0.42053 cumulative IPC: 0.456803 (Simulation time: 0 hr 51 min 2 sec) 
Heartbeat CPU 0 instructions: 460000002 cycles: 659036449 heartbeat IPC: 0.4232 cumulative IPC: 0.455412 (Simulation time: 0 hr 52 min 34 sec) 
Heartbeat CPU 0 instructions: 470000003 cycles: 682664489 heartbeat IPC: 0.423226 cumulative IPC: 0.454133 (Simulation time: 0 hr 54 min 5 sec) 
Heartbeat CPU 0 instructions: 480000001 cycles: 706253793 heartbeat IPC: 0.423921 cumulative IPC: 0.45298 (Simulation time: 0 hr 55 min 36 sec) 
Heartbeat CPU 0 instructions: 490000001 cycles: 729808015 heartbeat IPC: 0.424552 cumulative IPC: 0.451937 (Simulation time: 0 hr 57 min 7 sec) 
Heartbeat CPU 0 instructions: 500000001 cycles: 753311882 heartbeat IPC: 0.425462 cumulative IPC: 0.451001 (Simulation time: 0 hr 58 min 39 sec) 
Heartbeat CPU 0 instructions: 510000003 cycles: 776855765 heartbeat IPC: 0.424739 cumulative IPC: 0.450104 (Simulation time: 1 hr 0 min 10 sec) 
Heartbeat CPU 0 instructions: 520000004 cycles: 800341474 heartbeat IPC: 0.425791 cumulative IPC: 0.449302 (Simulation time: 1 hr 1 min 41 sec) 
Heartbeat CPU 0 instructions: 530000001 cycles: 823832611 heartbeat IPC: 0.425692 cumulative IPC: 0.448548 (Simulation time: 1 hr 3 min 12 sec) 
Heartbeat CPU 0 instructions: 540000004 cycles: 847316525 heartbeat IPC: 0.425824 cumulative IPC: 0.447845 (Simulation time: 1 hr 4 min 44 sec) 
Heartbeat CPU 0 instructions: 550000003 cycles: 870821681 heartbeat IPC: 0.425439 cumulative IPC: 0.447172 (Simulation time: 1 hr 6 min 16 sec) 
Heartbeat CPU 0 instructions: 560000001 cycles: 894289068 heartbeat IPC: 0.426123 cumulative IPC: 0.446559 (Simulation time: 1 hr 7 min 47 sec) 
Heartbeat CPU 0 instructions: 570000003 cycles: 917785522 heartbeat IPC: 0.425596 cumulative IPC: 0.445966 (Simulation time: 1 hr 9 min 18 sec) 
Heartbeat CPU 0 instructions: 580000003 cycles: 941321857 heartbeat IPC: 0.424875 cumulative IPC: 0.445384 (Simulation time: 1 hr 10 min 49 sec) 
Heartbeat CPU 0 instructions: 590000004 cycles: 964780877 heartbeat IPC: 0.426275 cumulative IPC: 0.444873 (Simulation time: 1 hr 12 min 20 sec) 
Heartbeat CPU 0 instructions: 600000001 cycles: 988263839 heartbeat IPC: 0.425841 cumulative IPC: 0.444376 (Simulation time: 1 hr 13 min 51 sec) 
Heartbeat CPU 0 instructions: 610000002 cycles: 1011741944 heartbeat IPC: 0.425929 cumulative IPC: 0.443907 (Simulation time: 1 hr 15 min 22 sec) 
Heartbeat CPU 0 instructions: 620000000 cycles: 1035230996 heartbeat IPC: 0.42573 cumulative IPC: 0.443456 (Simulation time: 1 hr 16 min 53 sec) 
Heartbeat CPU 0 instructions: 630000004 cycles: 1058724533 heartbeat IPC: 0.425649 cumulative IPC: 0.443025 (Simulation time: 1 hr 18 min 25 sec) 
Heartbeat CPU 0 instructions: 640000000 cycles: 1082205451 heartbeat IPC: 0.425878 cumulative IPC: 0.44262 (Simulation time: 1 hr 19 min 56 sec) 
Heartbeat CPU 0 instructions: 650000000 cycles: 1105707207 heartbeat IPC: 0.4255 cumulative IPC: 0.442225 (Simulation time: 1 hr 21 min 27 sec) 
Heartbeat CPU 0 instructions: 660000002 cycles: 1129234046 heartbeat IPC: 0.425047 cumulative IPC: 0.441837 (Simulation time: 1 hr 22 min 58 sec) 
Heartbeat CPU 0 instructions: 670000001 cycles: 1152687372 heartbeat IPC: 0.426379 cumulative IPC: 0.441496 (Simulation time: 1 hr 24 min 29 sec) 
Heartbeat CPU 0 instructions: 680000004 cycles: 1176210445 heartbeat IPC: 0.425115 cumulative IPC: 0.441142 (Simulation time: 1 hr 26 min 0 sec) 
Heartbeat CPU 0 instructions: 690000000 cycles: 1199720279 heartbeat IPC: 0.425354 cumulative IPC: 0.440808 (Simulation time: 1 hr 27 min 31 sec) 
Heartbeat CPU 0 instructions: 700000003 cycles: 1223214311 heartbeat IPC: 0.42564 cumulative IPC: 0.440494 (Simulation time: 1 hr 29 min 2 sec) 
Finished CPU 0 instructions: 500000004 cycles: 1135088997 cumulative IPC: 0.440494 (Simulation time: 1 hr 29 min 2 sec) 

ChampSim completed all CPUs

Region of Interest Statistics

CPU 0 cumulative IPC: 0.440494 instructions: 500000004 cycles: 1135088997
cpu0_L1I TOTAL     ACCESS:         87  HIT:         33  MISS:         54
cpu0_L1I LOAD      ACCESS:         87  HIT:         33  MISS:         54
cpu0_L1I RFO       ACCESS:          0  HIT:          0  MISS:          0
cpu0_L1I PREFETCH  ACCESS:          0  HIT:          0  MISS:          0
cpu0_L1I WRITEBACK ACCESS:          0  HIT:          0  MISS:          0
cpu0_L1I TRANSLATION ACCESS:          0  HIT:          0  MISS:          0
cpu0_L1I PREFETCH  REQUESTED:          0  ISSUED:          0  USEFUL:          0  USELESS:          0
cpu0_L1I AVERAGE MISS LATENCY: 118.407 cycles
cpu0_DTLB TOTAL     ACCESS:  168668265  HIT:  168523494  MISS:     144771
cpu0_DTLB LOAD      ACCESS:  155124577  HIT:  154983249  MISS:     141328
cpu0_DTLB RFO       ACCESS:   13543688  HIT:   13540245  MISS:       3443
cpu0_DTLB PREFETCH  ACCESS:          0  HIT:          0  MISS:          0
cpu0_DTLB WRITEBACK ACCESS:          0  HIT:          0  MISS:          0
cpu0_DTLB TRANSLATION ACCESS:          0  HIT:          0  MISS:          0
cpu0_DTLB PREFETCH  REQUESTED:          0  ISSUED:          0  USEFUL:          0  USELESS:          0
cpu0_DTLB AVERAGE MISS LATENCY: 102.169 cycles
cpu0_ITLB TOTAL     ACCESS:   46568718  HIT:   46568717  MISS:          1
cpu0_ITLB LOAD      ACCESS:   46568718  HIT:   46568717  MISS:          1
cpu0_ITLB RFO       ACCESS:          0  HIT:          0  MISS:          0
cpu0_ITLB PREFETCH  ACCESS:          0  HIT:          0  MISS:          0
cpu0_ITLB WRITEBACK ACCESS:          0  HIT:          0  MISS:          0
cpu0_ITLB TRANSLATION ACCESS:          0  HIT:          0  MISS:          0
cpu0_ITLB PREFETCH  REQUESTED:          0  ISSUED:          0  USEFUL:          0  USELESS:          0
cpu0_ITLB AVERAGE MISS LATENCY: 1008 cycles
cpu0_STLB TOTAL     ACCESS:     144772  HIT:       9916  MISS:     134856
cpu0_STLB LOAD      ACCESS:     141329  HIT:       9915  MISS:     131414
cpu0_STLB RFO       ACCESS:       3443  HIT:          1  MISS:       3442
cpu0_STLB PREFETCH  ACCESS:          0  HIT:          0  MISS:          0
cpu0_STLB WRITEBACK ACCESS:          0  HIT:          0  MISS:          0
cpu0_STLB TRANSLATION ACCESS:          0  HIT:          0  MISS:          0
cpu0_STLB PREFETCH  REQUESTED:          0  ISSUED:          0  USEFUL:          0  USELESS:          0
cpu0_STLB AVERAGE MISS LATENCY: 99.9752 cycles
cpu0_L1D TOTAL     ACCESS:  194470182  HIT:  185207935  MISS:    9262247
cpu0_L1D LOAD      ACCESS:  158595694  HIT:  149553719  MISS:    9041975
cpu0_L1D RFO       ACCESS:   35739632  HIT:   35519405  MISS:     220227
cpu0_L1D PREFETCH  ACCESS:          0  HIT:          0  MISS:          0
cpu0_L1D WRITEBACK ACCESS:          0  HIT:          0  MISS:          0
cpu0_L1D TRANSLATION ACCESS:     134856  HIT:     134811  MISS:         45
cpu0_L1D PREFETCH  REQUESTED:          0  ISSUED:          0  USEFUL:          0  USELESS:          0
cpu0_L1D AVERAGE MISS LATENCY: 746.784 cycles
cpu0_L2C TOTAL     ACCESS:    9651485  HIT:    1036544  MISS:    8614941
cpu0_L2C LOAD      ACCESS:    9042029  HIT:     647351  MISS:    8394678
cpu0_L2C RFO       ACCESS:     220227  HIT:         12  MISS:     220215
cpu0_L2C PREFETCH  ACCESS:          0  HIT:          0  MISS:          0
cpu0_L2C WRITEBACK ACCESS:     389184  HIT:     389174  MISS:         10
cpu0_L2C TRANSLATION ACCESS:         45  HIT:          7  MISS:         38
cpu0_L2C PREFETCH  REQUESTED:          0  ISSUED:          0  USEFUL:          0  USELESS:          0
cpu0_L2C AVERAGE MISS LATENCY: 790.883 cycles
LLC TOTAL     ACCESS:   10986069  HIT:    1852900  MISS:    9133169
LLC LOAD      ACCESS:    8394678  HIT:    1850728  MISS:    6543950
LLC RFO       ACCESS:     220215  HIT:          4  MISS:     220211
LLC PREFETCH  ACCESS:    1981912  HIT:       2168  MISS:    1979744
LLC WRITEBACK ACCESS:     389226  HIT:          0  MISS:     389226
LLC TRANSLATION ACCESS:         38  HIT:          0  MISS:         38
LLC PREFETCH  REQUESTED:    8394678  ISSUED:    8394678  USEFUL:    6606389  USELESS:     131159
LLC AVERAGE MISS LATENCY: 676.872 cycles

DRAM Statistics
 CHANNEL 0
 RQ ROW_BUFFER_HIT:     198066  ROW_BUFFER_MISS:    8545849
 DBUS AVG_CONGESTED_CYCLE:    3.99346
 WQ ROW_BUFFER_HIT:      82965  ROW_BUFFER_MISS:     306082  FULL:          0


CPU 0 Branch Prediction Accuracy: 71.4142% MPKI: 9.94251 Average ROB Occupancy at Mispredict: 226.755
Branch type MPKI
BRANCH_DIRECT_JUMP: 3.2e-05
BRANCH_INDIRECT: 0
BRANCH_CONDITIONAL: 9.94247
BRANCH_DIRECT_CALL: 2e-06
BRANCH_INDIRECT_CALL: 0
BRANCH_RETURN: 2e-06

