/home/caslab/workspace/sim/ChampSim/bin/champsim --warmup_instructions 200000000 --simulation_instructions 500000000/ /home/caslab/workspace/sim/traces/speccpu_by_champsim429.mcf-192B.champsimtrace.xz
start simulation for 429.mcf-192B.champsimtrace.xz

*** ChampSim Multicore Out-of-Order Simulator ***

Warmup Instructions: 200000000
Simulation Instructions: 500000000
Number of CPUs: 1
Off-chip DRAM Size: 4 GiB Channels: 1 Width: 64-bit Data Rate: 3200 MT/s

VirtualMemory physical capacity: 8588881920 num_ppages: 2096895
VirtualMemory page size: 4096 log2_page_size: 12

CPU 0 runs /home/caslab/workspace/sim/traces/speccpu_by_champsim/429.mcf-192B.champsimtrace.xz
CPU 0 Bimodal branch predictor
Basic BTB sets: 1024 ways: 8 indirect buffer size: 4096 RAS size: 64
LLC next line prefetcher
WARNING: The extended signature CACHE::prefetch_line(ip, base_addr, pf_addr, fill_this_level, prefetch_metadata) is deprecated.
WARNING: Use CACHE::prefetch_line(pf_addr, fill_this_level, prefetch_metadata) instead.
Heartbeat CPU 0 instructions: 10000003 cycles: 3103894 heartbeat IPC: 3.22176 cumulative IPC: 3.22176 (Simulation time: 0 hr 0 min 30 sec) 
Heartbeat CPU 0 instructions: 20000000 cycles: 6205865 heartbeat IPC: 3.22376 cumulative IPC: 3.22276 (Simulation time: 0 hr 0 min 58 sec) 
Heartbeat CPU 0 instructions: 30000002 cycles: 9308842 heartbeat IPC: 3.22271 cumulative IPC: 3.22274 (Simulation time: 0 hr 1 min 27 sec) 
Heartbeat CPU 0 instructions: 40000001 cycles: 12413177 heartbeat IPC: 3.2213 cumulative IPC: 3.22238 (Simulation time: 0 hr 1 min 55 sec) 
Heartbeat CPU 0 instructions: 50000000 cycles: 15514312 heartbeat IPC: 3.22463 cumulative IPC: 3.22283 (Simulation time: 0 hr 2 min 23 sec) 
Heartbeat CPU 0 instructions: 60000003 cycles: 18615537 heartbeat IPC: 3.22453 cumulative IPC: 3.22311 (Simulation time: 0 hr 2 min 51 sec) 
Heartbeat CPU 0 instructions: 70000003 cycles: 21726446 heartbeat IPC: 3.21449 cumulative IPC: 3.22188 (Simulation time: 0 hr 3 min 19 sec) 
Heartbeat CPU 0 instructions: 80000002 cycles: 24866801 heartbeat IPC: 3.18435 cumulative IPC: 3.21714 (Simulation time: 0 hr 3 min 47 sec) 
Heartbeat CPU 0 instructions: 90000003 cycles: 27971309 heartbeat IPC: 3.22112 cumulative IPC: 3.21758 (Simulation time: 0 hr 4 min 15 sec) 
Heartbeat CPU 0 instructions: 100000003 cycles: 31075355 heartbeat IPC: 3.2216 cumulative IPC: 3.21798 (Simulation time: 0 hr 4 min 43 sec) 
Heartbeat CPU 0 instructions: 110000000 cycles: 34182989 heartbeat IPC: 3.21788 cumulative IPC: 3.21797 (Simulation time: 0 hr 5 min 11 sec) 
Heartbeat CPU 0 instructions: 120000000 cycles: 37289912 heartbeat IPC: 3.21862 cumulative IPC: 3.21803 (Simulation time: 0 hr 5 min 40 sec) 
Heartbeat CPU 0 instructions: 130000004 cycles: 40394341 heartbeat IPC: 3.22121 cumulative IPC: 3.21827 (Simulation time: 0 hr 6 min 8 sec) 
Heartbeat CPU 0 instructions: 140000002 cycles: 43497324 heartbeat IPC: 3.2227 cumulative IPC: 3.21859 (Simulation time: 0 hr 6 min 37 sec) 
Heartbeat CPU 0 instructions: 150000004 cycles: 46602441 heartbeat IPC: 3.22049 cumulative IPC: 3.21872 (Simulation time: 0 hr 7 min 5 sec) 
Heartbeat CPU 0 instructions: 160000000 cycles: 49718532 heartbeat IPC: 3.20915 cumulative IPC: 3.21812 (Simulation time: 0 hr 7 min 34 sec) 
Heartbeat CPU 0 instructions: 170000001 cycles: 52826407 heartbeat IPC: 3.21763 cumulative IPC: 3.21809 (Simulation time: 0 hr 8 min 2 sec) 
Heartbeat CPU 0 instructions: 180000003 cycles: 55931770 heartbeat IPC: 3.22024 cumulative IPC: 3.21821 (Simulation time: 0 hr 8 min 30 sec) 
Heartbeat CPU 0 instructions: 190000004 cycles: 59041631 heartbeat IPC: 3.21558 cumulative IPC: 3.21807 (Simulation time: 0 hr 8 min 59 sec) 
Heartbeat CPU 0 instructions: 200000001 cycles: 62149080 heartbeat IPC: 3.21807 cumulative IPC: 3.21807 (Simulation time: 0 hr 9 min 27 sec) 

Warmup complete CPU 0 instructions: 200000001 cycles: 62149080 (Simulation time: 0 hr 9 min 27 sec) 

Heartbeat CPU 0 instructions: 210000004 cycles: 136534277 heartbeat IPC: 0.134435 cumulative IPC: 0.134435 (Simulation time: 0 hr 10 min 54 sec) 
Heartbeat CPU 0 instructions: 220000003 cycles: 211406872 heartbeat IPC: 0.13356 cumulative IPC: 0.133996 (Simulation time: 0 hr 12 min 22 sec) 
Heartbeat CPU 0 instructions: 230000001 cycles: 284646669 heartbeat IPC: 0.136538 cumulative IPC: 0.134833 (Simulation time: 0 hr 13 min 47 sec) 
Heartbeat CPU 0 instructions: 240000003 cycles: 358615721 heartbeat IPC: 0.135192 cumulative IPC: 0.134922 (Simulation time: 0 hr 15 min 15 sec) 
Heartbeat CPU 0 instructions: 250000004 cycles: 432808341 heartbeat IPC: 0.134784 cumulative IPC: 0.134895 (Simulation time: 0 hr 16 min 43 sec) 
Heartbeat CPU 0 instructions: 260000000 cycles: 507461092 heartbeat IPC: 0.133953 cumulative IPC: 0.134737 (Simulation time: 0 hr 18 min 12 sec) 
Heartbeat CPU 0 instructions: 270000001 cycles: 581983266 heartbeat IPC: 0.134188 cumulative IPC: 0.134658 (Simulation time: 0 hr 19 min 37 sec) 
Heartbeat CPU 0 instructions: 280000002 cycles: 654568574 heartbeat IPC: 0.137769 cumulative IPC: 0.135039 (Simulation time: 0 hr 21 min 3 sec) 
Heartbeat CPU 0 instructions: 290000000 cycles: 729049988 heartbeat IPC: 0.134262 cumulative IPC: 0.134953 (Simulation time: 0 hr 22 min 31 sec) 
Heartbeat CPU 0 instructions: 300000000 cycles: 803579861 heartbeat IPC: 0.134174 cumulative IPC: 0.134874 (Simulation time: 0 hr 23 min 59 sec) 
Heartbeat CPU 0 instructions: 310000000 cycles: 878423672 heartbeat IPC: 0.133612 cumulative IPC: 0.134759 (Simulation time: 0 hr 25 min 28 sec) 
Heartbeat CPU 0 instructions: 320000004 cycles: 953310302 heartbeat IPC: 0.133535 cumulative IPC: 0.134656 (Simulation time: 0 hr 26 min 57 sec) 
Heartbeat CPU 0 instructions: 330000002 cycles: 1028036166 heartbeat IPC: 0.133822 cumulative IPC: 0.134591 (Simulation time: 0 hr 28 min 25 sec) 
Heartbeat CPU 0 instructions: 340000002 cycles: 1102334904 heartbeat IPC: 0.134592 cumulative IPC: 0.134591 (Simulation time: 0 hr 29 min 53 sec) 
Heartbeat CPU 0 instructions: 350000000 cycles: 1177201955 heartbeat IPC: 0.13357 cumulative IPC: 0.134523 (Simulation time: 0 hr 31 min 22 sec) 
Heartbeat CPU 0 instructions: 360000000 cycles: 1251038841 heartbeat IPC: 0.135434 cumulative IPC: 0.134579 (Simulation time: 0 hr 32 min 50 sec) 
Heartbeat CPU 0 instructions: 370000003 cycles: 1325896002 heartbeat IPC: 0.133588 cumulative IPC: 0.134521 (Simulation time: 0 hr 34 min 17 sec) 
Heartbeat CPU 0 instructions: 380000000 cycles: 1400365497 heartbeat IPC: 0.134283 cumulative IPC: 0.134507 (Simulation time: 0 hr 35 min 43 sec) 
Heartbeat CPU 0 instructions: 390000000 cycles: 1475296946 heartbeat IPC: 0.133455 cumulative IPC: 0.134452 (Simulation time: 0 hr 37 min 11 sec) 
Heartbeat CPU 0 instructions: 400000002 cycles: 1549497118 heartbeat IPC: 0.134771 cumulative IPC: 0.134468 (Simulation time: 0 hr 38 min 36 sec) 
Heartbeat CPU 0 instructions: 410000001 cycles: 1623442143 heartbeat IPC: 0.135236 cumulative IPC: 0.134504 (Simulation time: 0 hr 40 min 2 sec) 
Heartbeat CPU 0 instructions: 420000004 cycles: 1697727452 heartbeat IPC: 0.134616 cumulative IPC: 0.134509 (Simulation time: 0 hr 41 min 30 sec) 
Heartbeat CPU 0 instructions: 430000000 cycles: 1772174202 heartbeat IPC: 0.134324 cumulative IPC: 0.134501 (Simulation time: 0 hr 42 min 56 sec) 
Heartbeat CPU 0 instructions: 440000002 cycles: 1847006668 heartbeat IPC: 0.133632 cumulative IPC: 0.134465 (Simulation time: 0 hr 44 min 24 sec) 
Heartbeat CPU 0 instructions: 450000001 cycles: 1922434520 heartbeat IPC: 0.132577 cumulative IPC: 0.134388 (Simulation time: 0 hr 45 min 52 sec) 
Heartbeat CPU 0 instructions: 460000001 cycles: 1997455424 heartbeat IPC: 0.133296 cumulative IPC: 0.134346 (Simulation time: 0 hr 47 min 18 sec) 
Heartbeat CPU 0 instructions: 470000001 cycles: 2072026948 heartbeat IPC: 0.134099 cumulative IPC: 0.134337 (Simulation time: 0 hr 48 min 46 sec) 
Heartbeat CPU 0 instructions: 480000000 cycles: 2146483505 heartbeat IPC: 0.134306 cumulative IPC: 0.134335 (Simulation time: 0 hr 50 min 15 sec) 
Heartbeat CPU 0 instructions: 490000000 cycles: 2221153221 heartbeat IPC: 0.133923 cumulative IPC: 0.134321 (Simulation time: 0 hr 51 min 42 sec) 
Heartbeat CPU 0 instructions: 500000000 cycles: 2295860088 heartbeat IPC: 0.133857 cumulative IPC: 0.134306 (Simulation time: 0 hr 53 min 8 sec) 
Heartbeat CPU 0 instructions: 510000000 cycles: 2369871623 heartbeat IPC: 0.135114 cumulative IPC: 0.134332 (Simulation time: 0 hr 54 min 35 sec) 
Heartbeat CPU 0 instructions: 520000000 cycles: 2444103268 heartbeat IPC: 0.134713 cumulative IPC: 0.134343 (Simulation time: 0 hr 56 min 2 sec) 
Heartbeat CPU 0 instructions: 530000002 cycles: 2519334851 heartbeat IPC: 0.132923 cumulative IPC: 0.1343 (Simulation time: 0 hr 57 min 29 sec) 
Heartbeat CPU 0 instructions: 540000000 cycles: 2594077283 heartbeat IPC: 0.133793 cumulative IPC: 0.134285 (Simulation time: 0 hr 58 min 55 sec) 
Heartbeat CPU 0 instructions: 550000003 cycles: 2668622059 heartbeat IPC: 0.134148 cumulative IPC: 0.134281 (Simulation time: 1 hr 0 min 21 sec) 
Heartbeat CPU 0 instructions: 560000000 cycles: 2743343450 heartbeat IPC: 0.13383 cumulative IPC: 0.134269 (Simulation time: 1 hr 1 min 47 sec) 
Heartbeat CPU 0 instructions: 570000002 cycles: 2816959809 heartbeat IPC: 0.135839 cumulative IPC: 0.13431 (Simulation time: 1 hr 3 min 11 sec) 
Heartbeat CPU 0 instructions: 580000000 cycles: 2889630739 heartbeat IPC: 0.137607 cumulative IPC: 0.134395 (Simulation time: 1 hr 4 min 35 sec) 
Heartbeat CPU 0 instructions: 590000004 cycles: 2963668157 heartbeat IPC: 0.135067 cumulative IPC: 0.134412 (Simulation time: 1 hr 6 min 2 sec) 
Heartbeat CPU 0 instructions: 600000000 cycles: 3038018588 heartbeat IPC: 0.134498 cumulative IPC: 0.134414 (Simulation time: 1 hr 7 min 26 sec) 
Heartbeat CPU 0 instructions: 610000000 cycles: 3112357928 heartbeat IPC: 0.134518 cumulative IPC: 0.134417 (Simulation time: 1 hr 8 min 52 sec) 
Heartbeat CPU 0 instructions: 620000002 cycles: 3186670795 heartbeat IPC: 0.134566 cumulative IPC: 0.134421 (Simulation time: 1 hr 10 min 18 sec) 
Heartbeat CPU 0 instructions: 630000003 cycles: 3261325497 heartbeat IPC: 0.13395 cumulative IPC: 0.13441 (Simulation time: 1 hr 11 min 45 sec) 
Heartbeat CPU 0 instructions: 640000001 cycles: 3336293082 heartbeat IPC: 0.133391 cumulative IPC: 0.134386 (Simulation time: 1 hr 13 min 11 sec) 
Heartbeat CPU 0 instructions: 650000000 cycles: 3411132075 heartbeat IPC: 0.13362 cumulative IPC: 0.134369 (Simulation time: 1 hr 14 min 37 sec) 
Heartbeat CPU 0 instructions: 660000004 cycles: 3484937640 heartbeat IPC: 0.135491 cumulative IPC: 0.134393 (Simulation time: 1 hr 16 min 3 sec) 
Heartbeat CPU 0 instructions: 670000003 cycles: 3559622085 heartbeat IPC: 0.133897 cumulative IPC: 0.134383 (Simulation time: 1 hr 17 min 32 sec) 
Heartbeat CPU 0 instructions: 680000001 cycles: 3634677077 heartbeat IPC: 0.133236 cumulative IPC: 0.134359 (Simulation time: 1 hr 19 min 0 sec) 
Heartbeat CPU 0 instructions: 690000000 cycles: 3709507396 heartbeat IPC: 0.133636 cumulative IPC: 0.134344 (Simulation time: 1 hr 20 min 25 sec) 
Heartbeat CPU 0 instructions: 700000004 cycles: 3784427436 heartbeat IPC: 0.133476 cumulative IPC: 0.134326 (Simulation time: 1 hr 21 min 53 sec) 
Finished CPU 0 instructions: 500000003 cycles: 3722278356 cumulative IPC: 0.134326 (Simulation time: 1 hr 21 min 53 sec) 

ChampSim completed all CPUs

Region of Interest Statistics

CPU 0 cumulative IPC: 0.134326 instructions: 500000003 cycles: 3722278356
cpu0_DTLB TOTAL     ACCESS:  103197373  HIT:   35352036  MISS:   67845337
cpu0_DTLB LOAD      ACCESS:  103143954  HIT:   35301418  MISS:   67842536
cpu0_DTLB RFO       ACCESS:      53419  HIT:      50618  MISS:       2801
cpu0_DTLB PREFETCH  ACCESS:          0  HIT:          0  MISS:          0
cpu0_DTLB WRITEBACK ACCESS:          0  HIT:          0  MISS:          0
cpu0_DTLB TRANSLATION ACCESS:          0  HIT:          0  MISS:          0
cpu0_DTLB PREFETCH  REQUESTED:          0  ISSUED:          0  USEFUL:          0  USELESS:          0
cpu0_DTLB AVERAGE MISS LATENCY: 9.79977 cycles
cpu0_ITLB TOTAL     ACCESS:   55220581  HIT:   55220581  MISS:          0
cpu0_ITLB LOAD      ACCESS:   55220581  HIT:   55220581  MISS:          0
cpu0_ITLB RFO       ACCESS:          0  HIT:          0  MISS:          0
cpu0_ITLB PREFETCH  ACCESS:          0  HIT:          0  MISS:          0
cpu0_ITLB WRITEBACK ACCESS:          0  HIT:          0  MISS:          0
cpu0_ITLB TRANSLATION ACCESS:          0  HIT:          0  MISS:          0
cpu0_ITLB PREFETCH  REQUESTED:          0  ISSUED:          0  USEFUL:          0  USELESS:          0
cpu0_ITLB AVERAGE MISS LATENCY: -nan cycles
cpu0_STLB TOTAL     ACCESS:   67845337  HIT:   67440462  MISS:     404875
cpu0_STLB LOAD      ACCESS:   67842536  HIT:   67437795  MISS:     404741
cpu0_STLB RFO       ACCESS:       2801  HIT:       2667  MISS:        134
cpu0_STLB PREFETCH  ACCESS:          0  HIT:          0  MISS:          0
cpu0_STLB WRITEBACK ACCESS:          0  HIT:          0  MISS:          0
cpu0_STLB TRANSLATION ACCESS:          0  HIT:          0  MISS:          0
cpu0_STLB PREFETCH  REQUESTED:          0  ISSUED:          0  USEFUL:          0  USELESS:          0
cpu0_STLB AVERAGE MISS LATENCY: 133.049 cycles
cpu0_L1D TOTAL     ACCESS:  104059523  HIT:   71411656  MISS:   32647867
cpu0_L1D LOAD      ACCESS:  103578639  HIT:   70932085  MISS:   32646554
cpu0_L1D RFO       ACCESS:      76018  HIT:      75172  MISS:        846
cpu0_L1D PREFETCH  ACCESS:          0  HIT:          0  MISS:          0
cpu0_L1D WRITEBACK ACCESS:          0  HIT:          0  MISS:          0
cpu0_L1D TRANSLATION ACCESS:     404866  HIT:     404399  MISS:        467
cpu0_L1D PREFETCH  REQUESTED:          0  ISSUED:          0  USEFUL:          0  USELESS:          0
cpu0_L1D AVERAGE MISS LATENCY: 172.442 cycles
cpu0_L2C TOTAL     ACCESS:   32677845  HIT:    6611963  MISS:   26065882
cpu0_L2C LOAD      ACCESS:   32646554  HIT:    6581989  MISS:   26064565
cpu0_L2C RFO       ACCESS:        846  HIT:        516  MISS:        330
cpu0_L2C PREFETCH  ACCESS:          0  HIT:          0  MISS:          0
cpu0_L2C WRITEBACK ACCESS:      29978  HIT:      29158  MISS:        820
cpu0_L2C TRANSLATION ACCESS:        467  HIT:        300  MISS:        167
cpu0_L2C PREFETCH  REQUESTED:          0  ISSUED:          0  USEFUL:          0  USELESS:          0
cpu0_L2C AVERAGE MISS LATENCY: 202.208 cycles
LLC TOTAL     ACCESS:   47808906  HIT:   21249864  MISS:   26559042
LLC LOAD      ACCESS:   26064565  HIT:   21247356  MISS:    4817209
LLC RFO       ACCESS:        330  HIT:          4  MISS:        326
LLC PREFETCH  ACCESS:   21726686  HIT:       2485  MISS:   21724201
LLC WRITEBACK ACCESS:      17158  HIT:         19  MISS:      17139
LLC TRANSLATION ACCESS:        167  HIT:          0  MISS:        167
LLC PREFETCH  REQUESTED:   26064565  ISSUED:   21786973  USEFUL:   21305123  USELESS:     477663
LLC AVERAGE MISS LATENCY: 3926.86 cycles

DRAM Statistics
 CHANNEL 0
 RQ ROW_BUFFER_HIT:       1488  ROW_BUFFER_MISS:   26540102
 DBUS AVG_CONGESTED_CYCLE:    3.99807
 WQ ROW_BUFFER_HIT:       6689  ROW_BUFFER_MISS:      10509  FULL:          0


CPU 0 Branch Prediction Accuracy: 91.1883% MPKI: 21.1817 Average ROB Occupancy at Mispredict: 28.566
Branch type MPKI
BRANCH_DIRECT_JUMP: 0
BRANCH_INDIRECT: 0
BRANCH_CONDITIONAL: 21.1817
BRANCH_DIRECT_CALL: 0
BRANCH_INDIRECT_CALL: 0
BRANCH_RETURN: 0

