/home/caslab/workspace/sim/ChampSim/bin/champsim --warmup_instructions 200000000 --simulation_instructions 500000000/ /home/caslab/workspace/sim/traces/speccpu_by_champsim429.mcf-217B.champsimtrace.xz
start simulation for 429.mcf-217B.champsimtrace.xz

*** ChampSim Multicore Out-of-Order Simulator ***

Warmup Instructions: 200000000
Simulation Instructions: 500000000
Number of CPUs: 1
Off-chip DRAM Size: 4 GiB Channels: 1 Width: 64-bit Data Rate: 3200 MT/s

VirtualMemory physical capacity: 8588881920 num_ppages: 2096895
VirtualMemory page size: 4096 log2_page_size: 12

CPU 0 runs /home/caslab/workspace/sim/traces/speccpu_by_champsim/429.mcf-217B.champsimtrace.xz
CPU 0 Bimodal branch predictor
Basic BTB sets: 1024 ways: 8 indirect buffer size: 4096 RAS size: 64
LLC next line prefetcher
WARNING: The extended signature CACHE::prefetch_line(ip, base_addr, pf_addr, fill_this_level, prefetch_metadata) is deprecated.
WARNING: Use CACHE::prefetch_line(pf_addr, fill_this_level, prefetch_metadata) instead.
Heartbeat CPU 0 instructions: 10000000 cycles: 2576597 heartbeat IPC: 3.88109 cumulative IPC: 3.88109 (Simulation time: 0 hr 0 min 26 sec) 
Heartbeat CPU 0 instructions: 20000001 cycles: 6138284 heartbeat IPC: 2.80766 cumulative IPC: 3.25824 (Simulation time: 0 hr 1 min 4 sec) 
Heartbeat CPU 0 instructions: 30000000 cycles: 9256959 heartbeat IPC: 3.20649 cumulative IPC: 3.24081 (Simulation time: 0 hr 1 min 36 sec) 
Heartbeat CPU 0 instructions: 40000002 cycles: 11877786 heartbeat IPC: 3.81559 cumulative IPC: 3.36763 (Simulation time: 0 hr 2 min 2 sec) 
Heartbeat CPU 0 instructions: 50000003 cycles: 14748523 heartbeat IPC: 3.48343 cumulative IPC: 3.39017 (Simulation time: 0 hr 2 min 32 sec) 
Heartbeat CPU 0 instructions: 60000002 cycles: 18047704 heartbeat IPC: 3.03105 cumulative IPC: 3.32452 (Simulation time: 0 hr 3 min 6 sec) 
Heartbeat CPU 0 instructions: 70000000 cycles: 20885882 heartbeat IPC: 3.52339 cumulative IPC: 3.35155 (Simulation time: 0 hr 3 min 35 sec) 
Heartbeat CPU 0 instructions: 80000004 cycles: 24112619 heartbeat IPC: 3.09911 cumulative IPC: 3.31776 (Simulation time: 0 hr 4 min 8 sec) 
Heartbeat CPU 0 instructions: 90000003 cycles: 27079596 heartbeat IPC: 3.37043 cumulative IPC: 3.32354 (Simulation time: 0 hr 4 min 39 sec) 
Heartbeat CPU 0 instructions: 100000003 cycles: 30017922 heartbeat IPC: 3.4033 cumulative IPC: 3.33134 (Simulation time: 0 hr 5 min 9 sec) 
Heartbeat CPU 0 instructions: 110000001 cycles: 32807412 heartbeat IPC: 3.58488 cumulative IPC: 3.3529 (Simulation time: 0 hr 5 min 37 sec) 
Heartbeat CPU 0 instructions: 120000002 cycles: 35375880 heartbeat IPC: 3.89337 cumulative IPC: 3.39214 (Simulation time: 0 hr 6 min 3 sec) 
Heartbeat CPU 0 instructions: 130000004 cycles: 38452165 heartbeat IPC: 3.25067 cumulative IPC: 3.38082 (Simulation time: 0 hr 6 min 34 sec) 
Heartbeat CPU 0 instructions: 140000001 cycles: 41166878 heartbeat IPC: 3.68363 cumulative IPC: 3.40079 (Simulation time: 0 hr 7 min 2 sec) 
Heartbeat CPU 0 instructions: 150000002 cycles: 44398460 heartbeat IPC: 3.09446 cumulative IPC: 3.3785 (Simulation time: 0 hr 7 min 36 sec) 
Heartbeat CPU 0 instructions: 160000001 cycles: 47015250 heartbeat IPC: 3.82148 cumulative IPC: 3.40315 (Simulation time: 0 hr 8 min 3 sec) 
Heartbeat CPU 0 instructions: 170000002 cycles: 49699388 heartbeat IPC: 3.72559 cumulative IPC: 3.42057 (Simulation time: 0 hr 8 min 30 sec) 
Heartbeat CPU 0 instructions: 180000004 cycles: 52263909 heartbeat IPC: 3.89936 cumulative IPC: 3.44406 (Simulation time: 0 hr 8 min 56 sec) 
Heartbeat CPU 0 instructions: 190000001 cycles: 55653805 heartbeat IPC: 2.94994 cumulative IPC: 3.41396 (Simulation time: 0 hr 9 min 31 sec) 
Heartbeat CPU 0 instructions: 200000003 cycles: 58366465 heartbeat IPC: 3.68642 cumulative IPC: 3.42663 (Simulation time: 0 hr 9 min 59 sec) 

Warmup complete CPU 0 instructions: 200000003 cycles: 58366465 (Simulation time: 0 hr 9 min 59 sec) 

Heartbeat CPU 0 instructions: 210000002 cycles: 71532518 heartbeat IPC: 0.759529 cumulative IPC: 0.759529 (Simulation time: 0 hr 10 min 45 sec) 
Heartbeat CPU 0 instructions: 220000001 cycles: 87082805 heartbeat IPC: 0.643075 cumulative IPC: 0.696468 (Simulation time: 0 hr 11 min 37 sec) 
Heartbeat CPU 0 instructions: 230000002 cycles: 93701805 heartbeat IPC: 1.5108 cumulative IPC: 0.849008 (Simulation time: 0 hr 12 min 12 sec) 
Heartbeat CPU 0 instructions: 240000004 cycles: 102303053 heartbeat IPC: 1.16262 cumulative IPC: 0.910403 (Simulation time: 0 hr 12 min 51 sec) 
Heartbeat CPU 0 instructions: 250000003 cycles: 111059589 heartbeat IPC: 1.142 cumulative IPC: 0.94889 (Simulation time: 0 hr 13 min 29 sec) 
Heartbeat CPU 0 instructions: 260000001 cycles: 127632315 heartbeat IPC: 0.603401 cumulative IPC: 0.866228 (Simulation time: 0 hr 14 min 24 sec) 
Heartbeat CPU 0 instructions: 270000002 cycles: 143121958 heartbeat IPC: 0.645593 cumulative IPC: 0.825905 (Simulation time: 0 hr 15 min 16 sec) 
Heartbeat CPU 0 instructions: 280000003 cycles: 155889242 heartbeat IPC: 0.783252 cumulative IPC: 0.820321 (Simulation time: 0 hr 16 min 3 sec) 
Heartbeat CPU 0 instructions: 290000002 cycles: 162016397 heartbeat IPC: 1.63208 cumulative IPC: 0.868307 (Simulation time: 0 hr 16 min 38 sec) 
Heartbeat CPU 0 instructions: 300000001 cycles: 171882313 heartbeat IPC: 1.01359 cumulative IPC: 0.880934 (Simulation time: 0 hr 17 min 18 sec) 
Heartbeat CPU 0 instructions: 310000003 cycles: 184303580 heartbeat IPC: 0.805071 cumulative IPC: 0.873452 (Simulation time: 0 hr 18 min 5 sec) 
Heartbeat CPU 0 instructions: 320000002 cycles: 190583250 heartbeat IPC: 1.59244 cumulative IPC: 0.9076 (Simulation time: 0 hr 18 min 39 sec) 
Heartbeat CPU 0 instructions: 330000001 cycles: 198446377 heartbeat IPC: 1.27176 cumulative IPC: 0.928042 (Simulation time: 0 hr 19 min 16 sec) 
Heartbeat CPU 0 instructions: 340000004 cycles: 207665982 heartbeat IPC: 1.08465 cumulative IPC: 0.937712 (Simulation time: 0 hr 19 min 55 sec) 
Heartbeat CPU 0 instructions: 350000000 cycles: 219881781 heartbeat IPC: 0.818612 cumulative IPC: 0.928705 (Simulation time: 0 hr 20 min 39 sec) 
Heartbeat CPU 0 instructions: 360000000 cycles: 230823545 heartbeat IPC: 0.913929 cumulative IPC: 0.927767 (Simulation time: 0 hr 21 min 23 sec) 
Heartbeat CPU 0 instructions: 370000002 cycles: 238134787 heartbeat IPC: 1.36776 cumulative IPC: 0.945662 (Simulation time: 0 hr 21 min 59 sec) 
Heartbeat CPU 0 instructions: 380000001 cycles: 243670144 heartbeat IPC: 1.80657 cumulative IPC: 0.971378 (Simulation time: 0 hr 22 min 31 sec) 
Heartbeat CPU 0 instructions: 390000002 cycles: 252880139 heartbeat IPC: 1.08578 cumulative IPC: 0.976795 (Simulation time: 0 hr 23 min 10 sec) 
Heartbeat CPU 0 instructions: 400000003 cycles: 265435575 heartbeat IPC: 0.796468 cumulative IPC: 0.965861 (Simulation time: 0 hr 23 min 56 sec) 
Heartbeat CPU 0 instructions: 410000000 cycles: 271719963 heartbeat IPC: 1.59124 cumulative IPC: 0.984282 (Simulation time: 0 hr 24 min 30 sec) 
Heartbeat CPU 0 instructions: 420000000 cycles: 279211825 heartbeat IPC: 1.33478 cumulative IPC: 0.996172 (Simulation time: 0 hr 25 min 6 sec) 
Heartbeat CPU 0 instructions: 430000000 cycles: 286066228 heartbeat IPC: 1.45892 cumulative IPC: 1.0101 (Simulation time: 0 hr 25 min 42 sec) 
Heartbeat CPU 0 instructions: 440000001 cycles: 298704648 heartbeat IPC: 0.791238 cumulative IPC: 0.998593 (Simulation time: 0 hr 26 min 29 sec) 
Heartbeat CPU 0 instructions: 450000000 cycles: 305135276 heartbeat IPC: 1.55506 cumulative IPC: 1.01309 (Simulation time: 0 hr 27 min 3 sec) 
Heartbeat CPU 0 instructions: 460000000 cycles: 317416626 heartbeat IPC: 0.814243 cumulative IPC: 1.00367 (Simulation time: 0 hr 27 min 50 sec) 
Heartbeat CPU 0 instructions: 470000000 cycles: 327035850 heartbeat IPC: 1.03958 cumulative IPC: 1.00495 (Simulation time: 0 hr 28 min 31 sec) 
Heartbeat CPU 0 instructions: 480000000 cycles: 335340676 heartbeat IPC: 1.20412 cumulative IPC: 1.01092 (Simulation time: 0 hr 29 min 9 sec) 
Heartbeat CPU 0 instructions: 490000000 cycles: 343570062 heartbeat IPC: 1.21516 cumulative IPC: 1.01682 (Simulation time: 0 hr 29 min 47 sec) 
Heartbeat CPU 0 instructions: 500000002 cycles: 351798043 heartbeat IPC: 1.21537 cumulative IPC: 1.02238 (Simulation time: 0 hr 30 min 25 sec) 
Heartbeat CPU 0 instructions: 510000001 cycles: 358956912 heartbeat IPC: 1.39687 cumulative IPC: 1.0313 (Simulation time: 0 hr 31 min 1 sec) 
Heartbeat CPU 0 instructions: 520000001 cycles: 366513823 heartbeat IPC: 1.32329 cumulative IPC: 1.03846 (Simulation time: 0 hr 31 min 38 sec) 
Heartbeat CPU 0 instructions: 530000000 cycles: 371756346 heartbeat IPC: 1.90748 cumulative IPC: 1.053 (Simulation time: 0 hr 32 min 10 sec) 
Heartbeat CPU 0 instructions: 540000000 cycles: 383960305 heartbeat IPC: 0.819406 cumulative IPC: 1.04425 (Simulation time: 0 hr 32 min 55 sec) 
Heartbeat CPU 0 instructions: 550000003 cycles: 389715074 heartbeat IPC: 1.73769 cumulative IPC: 1.05629 (Simulation time: 0 hr 33 min 28 sec) 
Heartbeat CPU 0 instructions: 560000002 cycles: 399571710 heartbeat IPC: 1.01454 cumulative IPC: 1.05508 (Simulation time: 0 hr 34 min 9 sec) 
Heartbeat CPU 0 instructions: 570000004 cycles: 406426197 heartbeat IPC: 1.4589 cumulative IPC: 1.06304 (Simulation time: 0 hr 34 min 46 sec) 
Heartbeat CPU 0 instructions: 580000000 cycles: 415748601 heartbeat IPC: 1.07268 cumulative IPC: 1.06329 (Simulation time: 0 hr 35 min 25 sec) 
Heartbeat CPU 0 instructions: 590000004 cycles: 424247203 heartbeat IPC: 1.17666 cumulative IPC: 1.06592 (Simulation time: 0 hr 36 min 4 sec) 
Heartbeat CPU 0 instructions: 600000002 cycles: 432084471 heartbeat IPC: 1.27595 cumulative IPC: 1.07033 (Simulation time: 0 hr 36 min 40 sec) 
Heartbeat CPU 0 instructions: 610000004 cycles: 444817632 heartbeat IPC: 0.785351 cumulative IPC: 1.06094 (Simulation time: 0 hr 37 min 26 sec) 
Heartbeat CPU 0 instructions: 620000000 cycles: 450911467 heartbeat IPC: 1.641 cumulative IPC: 1.06994 (Simulation time: 0 hr 38 min 0 sec) 
Heartbeat CPU 0 instructions: 630000004 cycles: 462564433 heartbeat IPC: 0.858151 cumulative IPC: 1.06384 (Simulation time: 0 hr 38 min 43 sec) 
Heartbeat CPU 0 instructions: 640000000 cycles: 470370746 heartbeat IPC: 1.28101 cumulative IPC: 1.06795 (Simulation time: 0 hr 39 min 21 sec) 
Heartbeat CPU 0 instructions: 650000001 cycles: 478420078 heartbeat IPC: 1.24234 cumulative IPC: 1.07129 (Simulation time: 0 hr 39 min 58 sec) 
Heartbeat CPU 0 instructions: 660000001 cycles: 484847969 heartbeat IPC: 1.55572 cumulative IPC: 1.07859 (Simulation time: 0 hr 40 min 34 sec) 
Heartbeat CPU 0 instructions: 670000003 cycles: 492780121 heartbeat IPC: 1.26069 cumulative IPC: 1.08192 (Simulation time: 0 hr 41 min 11 sec) 
Heartbeat CPU 0 instructions: 680000003 cycles: 506551711 heartbeat IPC: 0.726133 cumulative IPC: 1.07099 (Simulation time: 0 hr 42 min 1 sec) 
Heartbeat CPU 0 instructions: 690000003 cycles: 517180672 heartbeat IPC: 0.940826 cumulative IPC: 1.06797 (Simulation time: 0 hr 42 min 43 sec) 
Heartbeat CPU 0 instructions: 700000000 cycles: 526015184 heartbeat IPC: 1.13192 cumulative IPC: 1.06918 (Simulation time: 0 hr 43 min 21 sec) 
Finished CPU 0 instructions: 500000002 cycles: 467648720 cumulative IPC: 1.06918 (Simulation time: 0 hr 43 min 21 sec) 

ChampSim completed all CPUs

Region of Interest Statistics

CPU 0 cumulative IPC: 1.06918 instructions: 500000002 cycles: 467648720
cpu0_DTLB TOTAL     ACCESS:  116491017  HIT:  115867326  MISS:     623691
cpu0_DTLB LOAD      ACCESS:   78891888  HIT:   78268976  MISS:     622912
cpu0_DTLB RFO       ACCESS:   37599129  HIT:   37598350  MISS:        779
cpu0_DTLB PREFETCH  ACCESS:          0  HIT:          0  MISS:          0
cpu0_DTLB WRITEBACK ACCESS:          0  HIT:          0  MISS:          0
cpu0_DTLB TRANSLATION ACCESS:          0  HIT:          0  MISS:          0
cpu0_DTLB PREFETCH  REQUESTED:          0  ISSUED:          0  USEFUL:          0  USELESS:          0
cpu0_DTLB AVERAGE MISS LATENCY: 23.7283 cycles
cpu0_ITLB TOTAL     ACCESS:   24074803  HIT:   24074803  MISS:          0
cpu0_ITLB LOAD      ACCESS:   24074803  HIT:   24074803  MISS:          0
cpu0_ITLB RFO       ACCESS:          0  HIT:          0  MISS:          0
cpu0_ITLB PREFETCH  ACCESS:          0  HIT:          0  MISS:          0
cpu0_ITLB WRITEBACK ACCESS:          0  HIT:          0  MISS:          0
cpu0_ITLB TRANSLATION ACCESS:          0  HIT:          0  MISS:          0
cpu0_ITLB PREFETCH  REQUESTED:          0  ISSUED:          0  USEFUL:          0  USELESS:          0
cpu0_ITLB AVERAGE MISS LATENCY: -nan cycles
cpu0_STLB TOTAL     ACCESS:     623691  HIT:     579549  MISS:      44142
cpu0_STLB LOAD      ACCESS:     622912  HIT:     578777  MISS:      44135
cpu0_STLB RFO       ACCESS:        779  HIT:        772  MISS:          7
cpu0_STLB PREFETCH  ACCESS:          0  HIT:          0  MISS:          0
cpu0_STLB WRITEBACK ACCESS:          0  HIT:          0  MISS:          0
cpu0_STLB TRANSLATION ACCESS:          0  HIT:          0  MISS:          0
cpu0_STLB PREFETCH  REQUESTED:          0  ISSUED:          0  USEFUL:          0  USELESS:          0
cpu0_STLB AVERAGE MISS LATENCY: 208.091 cycles
cpu0_L1D TOTAL     ACCESS:  197959579  HIT:  172734382  MISS:   25225197
cpu0_L1D LOAD      ACCESS:   93928296  HIT:   68704554  MISS:   25223742
cpu0_L1D RFO       ACCESS:  103987204  HIT:  103986617  MISS:        587
cpu0_L1D PREFETCH  ACCESS:          0  HIT:          0  MISS:          0
cpu0_L1D WRITEBACK ACCESS:          0  HIT:          0  MISS:          0
cpu0_L1D TRANSLATION ACCESS:      44079  HIT:      43211  MISS:        868
cpu0_L1D PREFETCH  REQUESTED:          0  ISSUED:          0  USEFUL:          0  USELESS:          0
cpu0_L1D AVERAGE MISS LATENCY: 21.422 cycles
cpu0_L2C TOTAL     ACCESS:   26124021  HIT:   24858900  MISS:    1265121
cpu0_L2C LOAD      ACCESS:   25223742  HIT:   23958935  MISS:    1264807
cpu0_L2C RFO       ACCESS:        587  HIT:        288  MISS:        299
cpu0_L2C PREFETCH  ACCESS:          0  HIT:          0  MISS:          0
cpu0_L2C WRITEBACK ACCESS:     898824  HIT:     898824  MISS:          0
cpu0_L2C TRANSLATION ACCESS:        868  HIT:        853  MISS:         15
cpu0_L2C PREFETCH  REQUESTED:          0  ISSUED:          0  USEFUL:          0  USELESS:          0
cpu0_L2C AVERAGE MISS LATENCY: 204.15 cycles
LLC TOTAL     ACCESS:    2509282  HIT:     519554  MISS:    1989728
LLC LOAD      ACCESS:    1264807  HIT:     382457  MISS:     882350
LLC RFO       ACCESS:        299  HIT:          0  MISS:        299
LLC PREFETCH  ACCESS:     710222  HIT:     137097  MISS:     573125
LLC WRITEBACK ACCESS:     533939  HIT:          0  MISS:     533939
LLC TRANSLATION ACCESS:         15  HIT:          0  MISS:         15
LLC PREFETCH  REQUESTED:    1264807  ISSUED:    1264807  USEFUL:     383496  USELESS:     190873
LLC AVERAGE MISS LATENCY: 217.929 cycles

DRAM Statistics
 CHANNEL 0
 RQ ROW_BUFFER_HIT:      48990  ROW_BUFFER_MISS:    1406799
 DBUS AVG_CONGESTED_CYCLE:    3.87045
 WQ ROW_BUFFER_HIT:      47518  ROW_BUFFER_MISS:     474266  FULL:          0


CPU 0 Branch Prediction Accuracy: 97.8927% MPKI: 2.39673 Average ROB Occupancy at Mispredict: 158.391
Branch type MPKI
BRANCH_DIRECT_JUMP: 0
BRANCH_INDIRECT: 0
BRANCH_CONDITIONAL: 2.39673
BRANCH_DIRECT_CALL: 0
BRANCH_INDIRECT_CALL: 0
BRANCH_RETURN: 0

