/home/caslab/workspace/sim/ChampSim/bin/champsim --warmup_instructions 200000000 --simulation_instructions 500000000/ /home/caslab/workspace/sim/traces/speccpu_by_champsim434.zeusmp-10B.champsimtrace.xz
start simulation for 434.zeusmp-10B.champsimtrace.xz

*** ChampSim Multicore Out-of-Order Simulator ***

Warmup Instructions: 200000000
Simulation Instructions: 500000000
Number of CPUs: 1
Off-chip DRAM Size: 4 GiB Channels: 1 Width: 64-bit Data Rate: 3200 MT/s

VirtualMemory physical capacity: 8588881920 num_ppages: 2096895
VirtualMemory page size: 4096 log2_page_size: 12

CPU 0 runs /home/caslab/workspace/sim/traces/speccpu_by_champsim/434.zeusmp-10B.champsimtrace.xz
CPU 0 Bimodal branch predictor
Basic BTB sets: 1024 ways: 8 indirect buffer size: 4096 RAS size: 64
LLC next line prefetcher
WARNING: The extended signature CACHE::prefetch_line(ip, base_addr, pf_addr, fill_this_level, prefetch_metadata) is deprecated.
WARNING: Use CACHE::prefetch_line(pf_addr, fill_this_level, prefetch_metadata) instead.
Heartbeat CPU 0 instructions: 10000002 cycles: 2635090 heartbeat IPC: 3.79494 cumulative IPC: 3.79494 (Simulation time: 0 hr 0 min 21 sec) 
Heartbeat CPU 0 instructions: 20000002 cycles: 5247794 heartbeat IPC: 3.82745 cumulative IPC: 3.81113 (Simulation time: 0 hr 0 min 42 sec) 
Heartbeat CPU 0 instructions: 30000001 cycles: 7859934 heartbeat IPC: 3.82828 cumulative IPC: 3.81683 (Simulation time: 0 hr 1 min 2 sec) 
Heartbeat CPU 0 instructions: 40000002 cycles: 10494946 heartbeat IPC: 3.79505 cumulative IPC: 3.81136 (Simulation time: 0 hr 1 min 23 sec) 
Heartbeat CPU 0 instructions: 50000001 cycles: 13107641 heartbeat IPC: 3.82747 cumulative IPC: 3.81457 (Simulation time: 0 hr 1 min 43 sec) 
Heartbeat CPU 0 instructions: 60000002 cycles: 15719780 heartbeat IPC: 3.82828 cumulative IPC: 3.81685 (Simulation time: 0 hr 2 min 4 sec) 
Heartbeat CPU 0 instructions: 70000002 cycles: 18354788 heartbeat IPC: 3.79505 cumulative IPC: 3.81372 (Simulation time: 0 hr 2 min 26 sec) 
Heartbeat CPU 0 instructions: 80000000 cycles: 20967496 heartbeat IPC: 3.82745 cumulative IPC: 3.81543 (Simulation time: 0 hr 2 min 47 sec) 
Heartbeat CPU 0 instructions: 90000001 cycles: 23579781 heartbeat IPC: 3.82807 cumulative IPC: 3.81683 (Simulation time: 0 hr 3 min 7 sec) 
Heartbeat CPU 0 instructions: 100000004 cycles: 26214916 heartbeat IPC: 3.79487 cumulative IPC: 3.81462 (Simulation time: 0 hr 3 min 28 sec) 
Heartbeat CPU 0 instructions: 110000001 cycles: 28827368 heartbeat IPC: 3.82782 cumulative IPC: 3.81582 (Simulation time: 0 hr 3 min 48 sec) 
Heartbeat CPU 0 instructions: 120000002 cycles: 31439603 heartbeat IPC: 3.82814 cumulative IPC: 3.81684 (Simulation time: 0 hr 4 min 8 sec) 
Heartbeat CPU 0 instructions: 130000004 cycles: 34074903 heartbeat IPC: 3.79464 cumulative IPC: 3.81512 (Simulation time: 0 hr 4 min 29 sec) 
Heartbeat CPU 0 instructions: 140000002 cycles: 36687243 heartbeat IPC: 3.82798 cumulative IPC: 3.81604 (Simulation time: 0 hr 4 min 50 sec) 
Heartbeat CPU 0 instructions: 150000003 cycles: 39299476 heartbeat IPC: 3.82814 cumulative IPC: 3.81684 (Simulation time: 0 hr 5 min 10 sec) 
Heartbeat CPU 0 instructions: 160000000 cycles: 41934762 heartbeat IPC: 3.79465 cumulative IPC: 3.81545 (Simulation time: 0 hr 5 min 30 sec) 
Heartbeat CPU 0 instructions: 170000001 cycles: 44547104 heartbeat IPC: 3.82798 cumulative IPC: 3.81619 (Simulation time: 0 hr 5 min 51 sec) 
Heartbeat CPU 0 instructions: 180000002 cycles: 47159329 heartbeat IPC: 3.82815 cumulative IPC: 3.81685 (Simulation time: 0 hr 6 min 11 sec) 
Heartbeat CPU 0 instructions: 190000000 cycles: 49794617 heartbeat IPC: 3.79465 cumulative IPC: 3.81567 (Simulation time: 0 hr 6 min 32 sec) 
Heartbeat CPU 0 instructions: 200000003 cycles: 52406968 heartbeat IPC: 3.82797 cumulative IPC: 3.81629 (Simulation time: 0 hr 6 min 52 sec) 

Warmup complete CPU 0 instructions: 200000003 cycles: 52406968 (Simulation time: 0 hr 6 min 52 sec) 

Heartbeat CPU 0 instructions: 210000000 cycles: 57350004 heartbeat IPC: 2.02305 cumulative IPC: 2.02305 (Simulation time: 0 hr 7 min 26 sec) 
Heartbeat CPU 0 instructions: 220000002 cycles: 62758486 heartbeat IPC: 1.84895 cumulative IPC: 1.93208 (Simulation time: 0 hr 8 min 0 sec) 
Heartbeat CPU 0 instructions: 230000000 cycles: 67718513 heartbeat IPC: 2.01612 cumulative IPC: 1.95931 (Simulation time: 0 hr 8 min 34 sec) 
Heartbeat CPU 0 instructions: 240000000 cycles: 72666770 heartbeat IPC: 2.02091 cumulative IPC: 1.97435 (Simulation time: 0 hr 9 min 8 sec) 
Heartbeat CPU 0 instructions: 250000001 cycles: 78098473 heartbeat IPC: 1.84104 cumulative IPC: 1.94617 (Simulation time: 0 hr 9 min 42 sec) 
Heartbeat CPU 0 instructions: 260000002 cycles: 83066661 heartbeat IPC: 2.01281 cumulative IPC: 1.95697 (Simulation time: 0 hr 10 min 16 sec) 
Heartbeat CPU 0 instructions: 270000004 cycles: 88022615 heartbeat IPC: 2.01778 cumulative IPC: 1.96543 (Simulation time: 0 hr 10 min 50 sec) 
Heartbeat CPU 0 instructions: 280000001 cycles: 93463008 heartbeat IPC: 1.8381 cumulative IPC: 1.94856 (Simulation time: 0 hr 11 min 24 sec) 
Heartbeat CPU 0 instructions: 290000002 cycles: 98430615 heartbeat IPC: 2.01304 cumulative IPC: 1.95552 (Simulation time: 0 hr 11 min 58 sec) 
Heartbeat CPU 0 instructions: 300000000 cycles: 103386573 heartbeat IPC: 2.01777 cumulative IPC: 1.96157 (Simulation time: 0 hr 12 min 32 sec) 
Heartbeat CPU 0 instructions: 310000002 cycles: 108823891 heartbeat IPC: 1.83914 cumulative IPC: 1.94977 (Simulation time: 0 hr 13 min 7 sec) 
Heartbeat CPU 0 instructions: 320000001 cycles: 113794116 heartbeat IPC: 2.01198 cumulative IPC: 1.95481 (Simulation time: 0 hr 13 min 41 sec) 
Heartbeat CPU 0 instructions: 330000004 cycles: 118750045 heartbeat IPC: 2.01779 cumulative IPC: 1.95951 (Simulation time: 0 hr 14 min 15 sec) 
Heartbeat CPU 0 instructions: 340000002 cycles: 124188503 heartbeat IPC: 1.83876 cumulative IPC: 1.95036 (Simulation time: 0 hr 14 min 51 sec) 
Heartbeat CPU 0 instructions: 350000003 cycles: 129157796 heartbeat IPC: 2.01236 cumulative IPC: 1.95438 (Simulation time: 0 hr 15 min 25 sec) 
Heartbeat CPU 0 instructions: 360000004 cycles: 134112632 heartbeat IPC: 2.01823 cumulative IPC: 1.95825 (Simulation time: 0 hr 15 min 59 sec) 
Heartbeat CPU 0 instructions: 370000003 cycles: 139548585 heartbeat IPC: 1.8396 cumulative IPC: 1.95085 (Simulation time: 0 hr 16 min 33 sec) 
Heartbeat CPU 0 instructions: 380000000 cycles: 144518173 heartbeat IPC: 2.01224 cumulative IPC: 1.95416 (Simulation time: 0 hr 17 min 7 sec) 
Heartbeat CPU 0 instructions: 390000004 cycles: 149471122 heartbeat IPC: 2.019 cumulative IPC: 1.95747 (Simulation time: 0 hr 17 min 41 sec) 
Heartbeat CPU 0 instructions: 400000002 cycles: 154908533 heartbeat IPC: 1.83911 cumulative IPC: 1.95119 (Simulation time: 0 hr 18 min 15 sec) 
Heartbeat CPU 0 instructions: 410000004 cycles: 159877537 heartbeat IPC: 2.01248 cumulative IPC: 1.95402 (Simulation time: 0 hr 18 min 49 sec) 
Heartbeat CPU 0 instructions: 420000004 cycles: 164833038 heartbeat IPC: 2.01796 cumulative IPC: 1.95684 (Simulation time: 0 hr 19 min 23 sec) 
Heartbeat CPU 0 instructions: 430000003 cycles: 170271414 heartbeat IPC: 1.83878 cumulative IPC: 1.95139 (Simulation time: 0 hr 19 min 57 sec) 
Heartbeat CPU 0 instructions: 440000004 cycles: 175241879 heartbeat IPC: 2.01188 cumulative IPC: 1.95384 (Simulation time: 0 hr 20 min 31 sec) 
Heartbeat CPU 0 instructions: 450000004 cycles: 180197232 heartbeat IPC: 2.01802 cumulative IPC: 1.95633 (Simulation time: 0 hr 21 min 5 sec) 
Heartbeat CPU 0 instructions: 460000002 cycles: 185635078 heartbeat IPC: 1.83896 cumulative IPC: 1.95154 (Simulation time: 0 hr 21 min 40 sec) 
Heartbeat CPU 0 instructions: 470000000 cycles: 190606400 heartbeat IPC: 2.01154 cumulative IPC: 1.9537 (Simulation time: 0 hr 22 min 14 sec) 
Heartbeat CPU 0 instructions: 480000004 cycles: 195560774 heartbeat IPC: 2.01842 cumulative IPC: 1.95594 (Simulation time: 0 hr 22 min 48 sec) 
Heartbeat CPU 0 instructions: 490000003 cycles: 201000313 heartbeat IPC: 1.83839 cumulative IPC: 1.95164 (Simulation time: 0 hr 23 min 22 sec) 
Heartbeat CPU 0 instructions: 500000000 cycles: 205972376 heartbeat IPC: 2.01124 cumulative IPC: 1.95356 (Simulation time: 0 hr 23 min 56 sec) 
Heartbeat CPU 0 instructions: 510000004 cycles: 210926477 heartbeat IPC: 2.01853 cumulative IPC: 1.9556 (Simulation time: 0 hr 24 min 30 sec) 
Heartbeat CPU 0 instructions: 520000003 cycles: 216367272 heartbeat IPC: 1.83797 cumulative IPC: 1.95169 (Simulation time: 0 hr 25 min 4 sec) 
Heartbeat CPU 0 instructions: 530000002 cycles: 221337936 heartbeat IPC: 2.0118 cumulative IPC: 1.95346 (Simulation time: 0 hr 25 min 38 sec) 
Heartbeat CPU 0 instructions: 540000004 cycles: 226293472 heartbeat IPC: 2.01795 cumulative IPC: 1.9553 (Simulation time: 0 hr 26 min 12 sec) 
Heartbeat CPU 0 instructions: 550000004 cycles: 231733893 heartbeat IPC: 1.83809 cumulative IPC: 1.95174 (Simulation time: 0 hr 26 min 46 sec) 
Heartbeat CPU 0 instructions: 560000001 cycles: 236706535 heartbeat IPC: 2.011 cumulative IPC: 1.95334 (Simulation time: 0 hr 27 min 20 sec) 
Heartbeat CPU 0 instructions: 570000004 cycles: 241659971 heartbeat IPC: 2.0188 cumulative IPC: 1.95505 (Simulation time: 0 hr 27 min 54 sec) 
Heartbeat CPU 0 instructions: 580000003 cycles: 247100478 heartbeat IPC: 1.83806 cumulative IPC: 1.95179 (Simulation time: 0 hr 28 min 28 sec) 
Heartbeat CPU 0 instructions: 590000001 cycles: 252071650 heartbeat IPC: 2.0116 cumulative IPC: 1.95327 (Simulation time: 0 hr 29 min 2 sec) 
Heartbeat CPU 0 instructions: 600000002 cycles: 257025336 heartbeat IPC: 2.0187 cumulative IPC: 1.95486 (Simulation time: 0 hr 29 min 36 sec) 
Heartbeat CPU 0 instructions: 610000003 cycles: 262465491 heartbeat IPC: 1.83818 cumulative IPC: 1.95184 (Simulation time: 0 hr 30 min 10 sec) 
Heartbeat CPU 0 instructions: 620000004 cycles: 267438534 heartbeat IPC: 2.01084 cumulative IPC: 1.9532 (Simulation time: 0 hr 30 min 44 sec) 
Heartbeat CPU 0 instructions: 630000000 cycles: 272390892 heartbeat IPC: 2.01924 cumulative IPC: 1.95469 (Simulation time: 0 hr 31 min 18 sec) 
Heartbeat CPU 0 instructions: 640000000 cycles: 285534879 heartbeat IPC: 0.760804 cumulative IPC: 1.88738 (Simulation time: 0 hr 32 min 32 sec) 
Heartbeat CPU 0 instructions: 650000004 cycles: 296783871 heartbeat IPC: 0.888969 cumulative IPC: 1.84142 (Simulation time: 0 hr 33 min 38 sec) 
Heartbeat CPU 0 instructions: 660000002 cycles: 308198898 heartbeat IPC: 0.876038 cumulative IPC: 1.79834 (Simulation time: 0 hr 34 min 44 sec) 
Heartbeat CPU 0 instructions: 670000004 cycles: 312839084 heartbeat IPC: 2.15509 cumulative IPC: 1.80469 (Simulation time: 0 hr 35 min 14 sec) 
Heartbeat CPU 0 instructions: 680000004 cycles: 317760914 heartbeat IPC: 2.03176 cumulative IPC: 1.8089 (Simulation time: 0 hr 35 min 46 sec) 
Heartbeat CPU 0 instructions: 690000003 cycles: 322357955 heartbeat IPC: 2.17531 cumulative IPC: 1.81514 (Simulation time: 0 hr 36 min 18 sec) 
Heartbeat CPU 0 instructions: 700000004 cycles: 326957079 heartbeat IPC: 2.17433 cumulative IPC: 1.82116 (Simulation time: 0 hr 36 min 47 sec) 
Finished CPU 0 instructions: 500000001 cycles: 274550111 cumulative IPC: 1.82116 (Simulation time: 0 hr 36 min 47 sec) 

ChampSim completed all CPUs

Region of Interest Statistics

CPU 0 cumulative IPC: 1.82116 instructions: 500000001 cycles: 274550111
cpu0_L1I TOTAL     ACCESS:   15944270  HIT:   15944030  MISS:        240
cpu0_L1I LOAD      ACCESS:   15944270  HIT:   15944030  MISS:        240
cpu0_L1I RFO       ACCESS:          0  HIT:          0  MISS:          0
cpu0_L1I PREFETCH  ACCESS:          0  HIT:          0  MISS:          0
cpu0_L1I WRITEBACK ACCESS:          0  HIT:          0  MISS:          0
cpu0_L1I TRANSLATION ACCESS:          0  HIT:          0  MISS:          0
cpu0_L1I PREFETCH  REQUESTED:          0  ISSUED:          0  USEFUL:          0  USELESS:          0
cpu0_L1I AVERAGE MISS LATENCY: 229.346 cycles
cpu0_DTLB TOTAL     ACCESS:   99481797  HIT:   94428080  MISS:    5053717
cpu0_DTLB LOAD      ACCESS:   72618717  HIT:   67609728  MISS:    5008989
cpu0_DTLB RFO       ACCESS:   26863080  HIT:   26818352  MISS:      44728
cpu0_DTLB PREFETCH  ACCESS:          0  HIT:          0  MISS:          0
cpu0_DTLB WRITEBACK ACCESS:          0  HIT:          0  MISS:          0
cpu0_DTLB TRANSLATION ACCESS:          0  HIT:          0  MISS:          0
cpu0_DTLB PREFETCH  REQUESTED:          0  ISSUED:          0  USEFUL:          0  USELESS:          0
cpu0_DTLB AVERAGE MISS LATENCY: 10.5989 cycles
cpu0_ITLB TOTAL     ACCESS:   11898371  HIT:   11898367  MISS:          4
cpu0_ITLB LOAD      ACCESS:   11898371  HIT:   11898367  MISS:          4
cpu0_ITLB RFO       ACCESS:          0  HIT:          0  MISS:          0
cpu0_ITLB PREFETCH  ACCESS:          0  HIT:          0  MISS:          0
cpu0_ITLB WRITEBACK ACCESS:          0  HIT:          0  MISS:          0
cpu0_ITLB TRANSLATION ACCESS:          0  HIT:          0  MISS:          0
cpu0_ITLB PREFETCH  REQUESTED:          0  ISSUED:          0  USEFUL:          0  USELESS:          0
cpu0_ITLB AVERAGE MISS LATENCY: 222.5 cycles
cpu0_STLB TOTAL     ACCESS:    5053721  HIT:    5024930  MISS:      28791
cpu0_STLB LOAD      ACCESS:    5008993  HIT:    4985438  MISS:      23555
cpu0_STLB RFO       ACCESS:      44728  HIT:      39492  MISS:       5236
cpu0_STLB PREFETCH  ACCESS:          0  HIT:          0  MISS:          0
cpu0_STLB WRITEBACK ACCESS:          0  HIT:          0  MISS:          0
cpu0_STLB TRANSLATION ACCESS:          0  HIT:          0  MISS:          0
cpu0_STLB PREFETCH  REQUESTED:          0  ISSUED:          0  USEFUL:          0  USELESS:          0
cpu0_STLB AVERAGE MISS LATENCY: 268.826 cycles
cpu0_L1D TOTAL     ACCESS:  105013549  HIT:  103093525  MISS:    1920024
cpu0_L1D LOAD      ACCESS:   69757044  HIT:   68193539  MISS:    1563505
cpu0_L1D RFO       ACCESS:   35229025  HIT:   34872542  MISS:     356483
cpu0_L1D PREFETCH  ACCESS:          0  HIT:          0  MISS:          0
cpu0_L1D WRITEBACK ACCESS:          0  HIT:          0  MISS:          0
cpu0_L1D TRANSLATION ACCESS:      27480  HIT:      27444  MISS:         36
cpu0_L1D PREFETCH  REQUESTED:          0  ISSUED:          0  USEFUL:          0  USELESS:          0
cpu0_L1D AVERAGE MISS LATENCY: 221.658 cycles
cpu0_L2C TOTAL     ACCESS:    2571800  HIT:     960876  MISS:    1610924
cpu0_L2C LOAD      ACCESS:    1563745  HIT:     293083  MISS:    1270662
cpu0_L2C RFO       ACCESS:     356483  HIT:      20062  MISS:     336421
cpu0_L2C PREFETCH  ACCESS:          0  HIT:          0  MISS:          0
cpu0_L2C WRITEBACK ACCESS:     651536  HIT:     647706  MISS:       3830
cpu0_L2C TRANSLATION ACCESS:         36  HIT:         25  MISS:         11
cpu0_L2C PREFETCH  REQUESTED:          0  ISSUED:          0  USEFUL:          0  USELESS:          0
cpu0_L2C AVERAGE MISS LATENCY: 251.095 cycles
LLC TOTAL     ACCESS:    2456976  HIT:     583542  MISS:    1873434
LLC LOAD      ACCESS:    1270662  HIT:     571115  MISS:     699547
LLC RFO       ACCESS:     336421  HIT:        647  MISS:     335774
LLC PREFETCH  ACCESS:     635294  HIT:      11743  MISS:     623551
LLC WRITEBACK ACCESS:     214588  HIT:         37  MISS:     214551
LLC TRANSLATION ACCESS:         11  HIT:          0  MISS:         11
LLC PREFETCH  REQUESTED:    1270662  ISSUED:    1270662  USEFUL:    1125413  USELESS:      61709
LLC AVERAGE MISS LATENCY: 179.657 cycles

DRAM Statistics
 CHANNEL 0
 RQ ROW_BUFFER_HIT:      91329  ROW_BUFFER_MISS:    1567452
 DBUS AVG_CONGESTED_CYCLE:    3.95882
 WQ ROW_BUFFER_HIT:      12430  ROW_BUFFER_MISS:     194949  FULL:          0


CPU 0 Branch Prediction Accuracy: 99.425% MPKI: 0.336154 Average ROB Occupancy at Mispredict: 258.561
Branch type MPKI
BRANCH_DIRECT_JUMP: 5.6e-05
BRANCH_INDIRECT: 0
BRANCH_CONDITIONAL: 0.336094
BRANCH_DIRECT_CALL: 2e-06
BRANCH_INDIRECT_CALL: 0
BRANCH_RETURN: 2e-06

