/home/caslab/workspace/sim/ChampSim/bin/champsim --warmup_instructions 200000000 --simulation_instructions 500000000/ /home/caslab/workspace/sim/traces/speccpu_by_champsim435.gromacs-226B.champsimtrace.xz
start simulation for 435.gromacs-226B.champsimtrace.xz

*** ChampSim Multicore Out-of-Order Simulator ***

Warmup Instructions: 200000000
Simulation Instructions: 500000000
Number of CPUs: 1
Off-chip DRAM Size: 4 GiB Channels: 1 Width: 64-bit Data Rate: 3200 MT/s

VirtualMemory physical capacity: 8588881920 num_ppages: 2096895
VirtualMemory page size: 4096 log2_page_size: 12

CPU 0 runs /home/caslab/workspace/sim/traces/speccpu_by_champsim/435.gromacs-226B.champsimtrace.xz
CPU 0 Bimodal branch predictor
Basic BTB sets: 1024 ways: 8 indirect buffer size: 4096 RAS size: 64
LLC next line prefetcher
WARNING: The extended signature CACHE::prefetch_line(ip, base_addr, pf_addr, fill_this_level, prefetch_metadata) is deprecated.
WARNING: Use CACHE::prefetch_line(pf_addr, fill_this_level, prefetch_metadata) instead.
Heartbeat CPU 0 instructions: 10000003 cycles: 2500100 heartbeat IPC: 3.99984 cumulative IPC: 3.99984 (Simulation time: 0 hr 0 min 20 sec) 
Heartbeat CPU 0 instructions: 20000003 cycles: 5000100 heartbeat IPC: 4 cumulative IPC: 3.99992 (Simulation time: 0 hr 0 min 41 sec) 
Heartbeat CPU 0 instructions: 30000003 cycles: 7500100 heartbeat IPC: 4 cumulative IPC: 3.99995 (Simulation time: 0 hr 1 min 1 sec) 
Heartbeat CPU 0 instructions: 40000002 cycles: 10133263 heartbeat IPC: 3.79771 cumulative IPC: 3.9474 (Simulation time: 0 hr 1 min 23 sec) 
Heartbeat CPU 0 instructions: 50000002 cycles: 12737551 heartbeat IPC: 3.83982 cumulative IPC: 3.9254 (Simulation time: 0 hr 1 min 43 sec) 
Heartbeat CPU 0 instructions: 60000000 cycles: 15718169 heartbeat IPC: 3.35501 cumulative IPC: 3.81724 (Simulation time: 0 hr 2 min 8 sec) 
Heartbeat CPU 0 instructions: 70000000 cycles: 18322725 heartbeat IPC: 3.83943 cumulative IPC: 3.82039 (Simulation time: 0 hr 2 min 31 sec) 
Heartbeat CPU 0 instructions: 80000001 cycles: 21445054 heartbeat IPC: 3.20274 cumulative IPC: 3.73046 (Simulation time: 0 hr 2 min 59 sec) 
Heartbeat CPU 0 instructions: 90000003 cycles: 24435196 heartbeat IPC: 3.34432 cumulative IPC: 3.68321 (Simulation time: 0 hr 3 min 25 sec) 
Heartbeat CPU 0 instructions: 100000003 cycles: 27413335 heartbeat IPC: 3.3578 cumulative IPC: 3.64786 (Simulation time: 0 hr 3 min 50 sec) 
Heartbeat CPU 0 instructions: 110000001 cycles: 30356960 heartbeat IPC: 3.39717 cumulative IPC: 3.62355 (Simulation time: 0 hr 4 min 16 sec) 
Heartbeat CPU 0 instructions: 120000002 cycles: 33467293 heartbeat IPC: 3.21509 cumulative IPC: 3.58559 (Simulation time: 0 hr 4 min 44 sec) 
Heartbeat CPU 0 instructions: 130000002 cycles: 36453557 heartbeat IPC: 3.34867 cumulative IPC: 3.56618 (Simulation time: 0 hr 5 min 9 sec) 
Heartbeat CPU 0 instructions: 140000002 cycles: 39382981 heartbeat IPC: 3.41364 cumulative IPC: 3.55484 (Simulation time: 0 hr 5 min 34 sec) 
Heartbeat CPU 0 instructions: 150000003 cycles: 42497539 heartbeat IPC: 3.21073 cumulative IPC: 3.52962 (Simulation time: 0 hr 6 min 2 sec) 
Heartbeat CPU 0 instructions: 160000002 cycles: 45433448 heartbeat IPC: 3.4061 cumulative IPC: 3.52163 (Simulation time: 0 hr 6 min 27 sec) 
Heartbeat CPU 0 instructions: 170000003 cycles: 48208566 heartbeat IPC: 3.60345 cumulative IPC: 3.52634 (Simulation time: 0 hr 6 min 52 sec) 
Heartbeat CPU 0 instructions: 180000002 cycles: 50960133 heartbeat IPC: 3.63429 cumulative IPC: 3.53217 (Simulation time: 0 hr 7 min 17 sec) 
Heartbeat CPU 0 instructions: 190000003 cycles: 53616662 heartbeat IPC: 3.76431 cumulative IPC: 3.54367 (Simulation time: 0 hr 7 min 40 sec) 
Heartbeat CPU 0 instructions: 200000000 cycles: 56344833 heartbeat IPC: 3.66546 cumulative IPC: 3.54957 (Simulation time: 0 hr 8 min 4 sec) 

Warmup complete CPU 0 instructions: 200000004 cycles: 56344834 (Simulation time: 0 hr 8 min 4 sec) 

Heartbeat CPU 0 instructions: 210000003 cycles: 61211766 heartbeat IPC: 2.05468 cumulative IPC: 2.05468 (Simulation time: 0 hr 8 min 31 sec) 
Heartbeat CPU 0 instructions: 220000003 cycles: 66763578 heartbeat IPC: 1.80121 cumulative IPC: 1.91962 (Simulation time: 0 hr 8 min 57 sec) 
Heartbeat CPU 0 instructions: 230000003 cycles: 72319090 heartbeat IPC: 1.80001 cumulative IPC: 1.87802 (Simulation time: 0 hr 9 min 23 sec) 
Heartbeat CPU 0 instructions: 240000000 cycles: 77288529 heartbeat IPC: 2.0123 cumulative IPC: 1.90988 (Simulation time: 0 hr 9 min 50 sec) 
Heartbeat CPU 0 instructions: 250000002 cycles: 83255338 heartbeat IPC: 1.67594 cumulative IPC: 1.85801 (Simulation time: 0 hr 10 min 16 sec) 
Heartbeat CPU 0 instructions: 260000000 cycles: 88095352 heartbeat IPC: 2.06611 cumulative IPC: 1.88973 (Simulation time: 0 hr 10 min 42 sec) 
Heartbeat CPU 0 instructions: 270000003 cycles: 94023221 heartbeat IPC: 1.68695 cumulative IPC: 1.85783 (Simulation time: 0 hr 11 min 9 sec) 
Heartbeat CPU 0 instructions: 280000004 cycles: 98749704 heartbeat IPC: 2.11574 cumulative IPC: 1.88658 (Simulation time: 0 hr 11 min 35 sec) 
Heartbeat CPU 0 instructions: 290000000 cycles: 104870144 heartbeat IPC: 1.63387 cumulative IPC: 1.8547 (Simulation time: 0 hr 12 min 1 sec) 
Heartbeat CPU 0 instructions: 300000004 cycles: 109450279 heartbeat IPC: 2.18334 cumulative IPC: 1.88305 (Simulation time: 0 hr 12 min 28 sec) 
Heartbeat CPU 0 instructions: 310000000 cycles: 115945590 heartbeat IPC: 1.53957 cumulative IPC: 1.84561 (Simulation time: 0 hr 12 min 55 sec) 
Heartbeat CPU 0 instructions: 320000003 cycles: 120297480 heartbeat IPC: 2.29785 cumulative IPC: 1.87639 (Simulation time: 0 hr 13 min 22 sec) 
Heartbeat CPU 0 instructions: 330000001 cycles: 126740865 heartbeat IPC: 1.55198 cumulative IPC: 1.84669 (Simulation time: 0 hr 13 min 49 sec) 
Heartbeat CPU 0 instructions: 340000002 cycles: 131328919 heartbeat IPC: 2.17957 cumulative IPC: 1.86706 (Simulation time: 0 hr 14 min 16 sec) 
Heartbeat CPU 0 instructions: 350000000 cycles: 137174847 heartbeat IPC: 1.71059 cumulative IPC: 1.85575 (Simulation time: 0 hr 14 min 43 sec) 
Heartbeat CPU 0 instructions: 360000002 cycles: 142133543 heartbeat IPC: 2.01666 cumulative IPC: 1.86505 (Simulation time: 0 hr 15 min 9 sec) 
Heartbeat CPU 0 instructions: 370000000 cycles: 147703316 heartbeat IPC: 1.7954 cumulative IPC: 1.8608 (Simulation time: 0 hr 15 min 36 sec) 
Heartbeat CPU 0 instructions: 380000002 cycles: 152691733 heartbeat IPC: 2.00464 cumulative IPC: 1.86825 (Simulation time: 0 hr 16 min 2 sec) 
Heartbeat CPU 0 instructions: 390000001 cycles: 158816261 heartbeat IPC: 1.63278 cumulative IPC: 1.85418 (Simulation time: 0 hr 16 min 29 sec) 
Heartbeat CPU 0 instructions: 400000000 cycles: 163340227 heartbeat IPC: 2.21045 cumulative IPC: 1.86924 (Simulation time: 0 hr 16 min 55 sec) 
Heartbeat CPU 0 instructions: 410000002 cycles: 169458400 heartbeat IPC: 1.63448 cumulative IPC: 1.85654 (Simulation time: 0 hr 17 min 22 sec) 
Heartbeat CPU 0 instructions: 420000002 cycles: 173762655 heartbeat IPC: 2.32328 cumulative IPC: 1.87365 (Simulation time: 0 hr 17 min 49 sec) 
Heartbeat CPU 0 instructions: 430000001 cycles: 179804821 heartbeat IPC: 1.65504 cumulative IPC: 1.86295 (Simulation time: 0 hr 18 min 15 sec) 
Heartbeat CPU 0 instructions: 440000004 cycles: 184212879 heartbeat IPC: 2.26857 cumulative IPC: 1.87693 (Simulation time: 0 hr 18 min 42 sec) 
Heartbeat CPU 0 instructions: 450000003 cycles: 189955100 heartbeat IPC: 1.74149 cumulative IPC: 1.87111 (Simulation time: 0 hr 19 min 8 sec) 
Heartbeat CPU 0 instructions: 460000002 cycles: 195247700 heartbeat IPC: 1.88943 cumulative IPC: 1.87181 (Simulation time: 0 hr 19 min 34 sec) 
Heartbeat CPU 0 instructions: 470000004 cycles: 200046469 heartbeat IPC: 2.08387 cumulative IPC: 1.87889 (Simulation time: 0 hr 20 min 1 sec) 
Heartbeat CPU 0 instructions: 480000004 cycles: 206038980 heartbeat IPC: 1.66875 cumulative IPC: 1.87048 (Simulation time: 0 hr 20 min 27 sec) 
Heartbeat CPU 0 instructions: 490000004 cycles: 210175603 heartbeat IPC: 2.41743 cumulative IPC: 1.88519 (Simulation time: 0 hr 20 min 53 sec) 
Heartbeat CPU 0 instructions: 500000004 cycles: 216066033 heartbeat IPC: 1.69767 cumulative IPC: 1.87827 (Simulation time: 0 hr 21 min 19 sec) 
Heartbeat CPU 0 instructions: 510000001 cycles: 220509366 heartbeat IPC: 2.25056 cumulative IPC: 1.88835 (Simulation time: 0 hr 21 min 46 sec) 
Heartbeat CPU 0 instructions: 520000004 cycles: 226115411 heartbeat IPC: 1.78379 cumulative IPC: 1.8849 (Simulation time: 0 hr 22 min 12 sec) 
Heartbeat CPU 0 instructions: 530000000 cycles: 231882173 heartbeat IPC: 1.73407 cumulative IPC: 1.87994 (Simulation time: 0 hr 22 min 38 sec) 
Heartbeat CPU 0 instructions: 540000000 cycles: 236171980 heartbeat IPC: 2.33111 cumulative IPC: 1.8907 (Simulation time: 0 hr 23 min 4 sec) 
Heartbeat CPU 0 instructions: 550000004 cycles: 242282114 heartbeat IPC: 1.63663 cumulative IPC: 1.88236 (Simulation time: 0 hr 23 min 30 sec) 
Heartbeat CPU 0 instructions: 560000002 cycles: 247491275 heartbeat IPC: 1.91969 cumulative IPC: 1.88337 (Simulation time: 0 hr 23 min 56 sec) 
Heartbeat CPU 0 instructions: 570000001 cycles: 252753452 heartbeat IPC: 1.90035 cumulative IPC: 1.88383 (Simulation time: 0 hr 24 min 22 sec) 
Heartbeat CPU 0 instructions: 580000004 cycles: 258761801 heartbeat IPC: 1.66435 cumulative IPC: 1.87731 (Simulation time: 0 hr 24 min 48 sec) 
Heartbeat CPU 0 instructions: 590000001 cycles: 263703242 heartbeat IPC: 2.0237 cumulative IPC: 1.8808 (Simulation time: 0 hr 25 min 14 sec) 
Heartbeat CPU 0 instructions: 600000004 cycles: 269251111 heartbeat IPC: 1.80249 cumulative IPC: 1.87876 (Simulation time: 0 hr 25 min 39 sec) 
Heartbeat CPU 0 instructions: 610000000 cycles: 275374770 heartbeat IPC: 1.63301 cumulative IPC: 1.87189 (Simulation time: 0 hr 26 min 5 sec) 
Heartbeat CPU 0 instructions: 620000004 cycles: 280830787 heartbeat IPC: 1.83284 cumulative IPC: 1.87094 (Simulation time: 0 hr 26 min 31 sec) 
Heartbeat CPU 0 instructions: 630000004 cycles: 286363434 heartbeat IPC: 1.80745 cumulative IPC: 1.86941 (Simulation time: 0 hr 26 min 57 sec) 
Heartbeat CPU 0 instructions: 640000002 cycles: 292611160 heartbeat IPC: 1.60058 cumulative IPC: 1.86231 (Simulation time: 0 hr 27 min 23 sec) 
Heartbeat CPU 0 instructions: 650000002 cycles: 297997170 heartbeat IPC: 1.85666 cumulative IPC: 1.86218 (Simulation time: 0 hr 27 min 49 sec) 
Heartbeat CPU 0 instructions: 660000001 cycles: 303692038 heartbeat IPC: 1.75597 cumulative IPC: 1.85973 (Simulation time: 0 hr 28 min 15 sec) 
Heartbeat CPU 0 instructions: 670000004 cycles: 310150109 heartbeat IPC: 1.54845 cumulative IPC: 1.85181 (Simulation time: 0 hr 28 min 40 sec) 
Heartbeat CPU 0 instructions: 680000000 cycles: 315772602 heartbeat IPC: 1.77857 cumulative IPC: 1.85023 (Simulation time: 0 hr 29 min 6 sec) 
Heartbeat CPU 0 instructions: 690000004 cycles: 321191678 heartbeat IPC: 1.84533 cumulative IPC: 1.85013 (Simulation time: 0 hr 29 min 32 sec) 
Heartbeat CPU 0 instructions: 700000000 cycles: 327357512 heartbeat IPC: 1.62184 cumulative IPC: 1.84493 (Simulation time: 0 hr 29 min 58 sec) 
Finished CPU 0 instructions: 500000001 cycles: 271012679 cumulative IPC: 1.84493 (Simulation time: 0 hr 29 min 58 sec) 

ChampSim completed all CPUs

Region of Interest Statistics

CPU 0 cumulative IPC: 1.84493 instructions: 500000001 cycles: 271012679
cpu0_L1I TOTAL     ACCESS:   13489175  HIT:   13489106  MISS:         69
cpu0_L1I LOAD      ACCESS:   13489175  HIT:   13489106  MISS:         69
cpu0_L1I RFO       ACCESS:          0  HIT:          0  MISS:          0
cpu0_L1I PREFETCH  ACCESS:          0  HIT:          0  MISS:          0
cpu0_L1I WRITEBACK ACCESS:          0  HIT:          0  MISS:          0
cpu0_L1I TRANSLATION ACCESS:          0  HIT:          0  MISS:          0
cpu0_L1I PREFETCH  REQUESTED:          0  ISSUED:          0  USEFUL:          0  USELESS:          0
cpu0_L1I AVERAGE MISS LATENCY: 110.261 cycles
cpu0_DTLB TOTAL     ACCESS:   90441075  HIT:   90436772  MISS:       4303
cpu0_DTLB LOAD      ACCESS:   64412296  HIT:   64409110  MISS:       3186
cpu0_DTLB RFO       ACCESS:   26028779  HIT:   26027662  MISS:       1117
cpu0_DTLB PREFETCH  ACCESS:          0  HIT:          0  MISS:          0
cpu0_DTLB WRITEBACK ACCESS:          0  HIT:          0  MISS:          0
cpu0_DTLB TRANSLATION ACCESS:          0  HIT:          0  MISS:          0
cpu0_DTLB PREFETCH  REQUESTED:          0  ISSUED:          0  USEFUL:          0  USELESS:          0
cpu0_DTLB AVERAGE MISS LATENCY: 27.7174 cycles
cpu0_ITLB TOTAL     ACCESS:   21350845  HIT:   21350844  MISS:          1
cpu0_ITLB LOAD      ACCESS:   21350845  HIT:   21350844  MISS:          1
cpu0_ITLB RFO       ACCESS:          0  HIT:          0  MISS:          0
cpu0_ITLB PREFETCH  ACCESS:          0  HIT:          0  MISS:          0
cpu0_ITLB WRITEBACK ACCESS:          0  HIT:          0  MISS:          0
cpu0_ITLB TRANSLATION ACCESS:          0  HIT:          0  MISS:          0
cpu0_ITLB PREFETCH  REQUESTED:          0  ISSUED:          0  USEFUL:          0  USELESS:          0
cpu0_ITLB AVERAGE MISS LATENCY: 228 cycles
cpu0_STLB TOTAL     ACCESS:       4304  HIT:       3915  MISS:        389
cpu0_STLB LOAD      ACCESS:       3187  HIT:       3110  MISS:         77
cpu0_STLB RFO       ACCESS:       1117  HIT:        805  MISS:        312
cpu0_STLB PREFETCH  ACCESS:          0  HIT:          0  MISS:          0
cpu0_STLB WRITEBACK ACCESS:          0  HIT:          0  MISS:          0
cpu0_STLB TRANSLATION ACCESS:          0  HIT:          0  MISS:          0
cpu0_STLB PREFETCH  REQUESTED:          0  ISSUED:          0  USEFUL:          0  USELESS:          0
cpu0_STLB AVERAGE MISS LATENCY: 207.578 cycles
cpu0_L1D TOTAL     ACCESS:  134031798  HIT:  134004099  MISS:      27699
cpu0_L1D LOAD      ACCESS:   70626917  HIT:   70618578  MISS:       8339
cpu0_L1D RFO       ACCESS:   63404492  HIT:   63385133  MISS:      19359
cpu0_L1D PREFETCH  ACCESS:          0  HIT:          0  MISS:          0
cpu0_L1D WRITEBACK ACCESS:          0  HIT:          0  MISS:          0
cpu0_L1D TRANSLATION ACCESS:        389  HIT:        388  MISS:          1
cpu0_L1D PREFETCH  REQUESTED:          0  ISSUED:          0  USEFUL:          0  USELESS:          0
cpu0_L1D AVERAGE MISS LATENCY: 118.636 cycles
cpu0_L2C TOTAL     ACCESS:      44767  HIT:      20064  MISS:      24703
cpu0_L2C LOAD      ACCESS:       8407  HIT:       2978  MISS:       5429
cpu0_L2C RFO       ACCESS:      19359  HIT:         85  MISS:      19274
cpu0_L2C PREFETCH  ACCESS:          0  HIT:          0  MISS:          0
cpu0_L2C WRITEBACK ACCESS:      17000  HIT:      17000  MISS:          0
cpu0_L2C TRANSLATION ACCESS:          1  HIT:          1  MISS:          0
cpu0_L2C PREFETCH  REQUESTED:          0  ISSUED:          0  USEFUL:          0  USELESS:          0
cpu0_L2C AVERAGE MISS LATENCY: 120.965 cycles
LLC TOTAL     ACCESS:      30087  HIT:       5333  MISS:      24754
LLC LOAD      ACCESS:       5429  HIT:       5209  MISS:        220
LLC RFO       ACCESS:      19274  HIT:          6  MISS:      19268
LLC PREFETCH  ACCESS:       5384  HIT:        118  MISS:       5266
LLC WRITEBACK ACCESS:          0  HIT:          0  MISS:          0
LLC TRANSLATION ACCESS:          0  HIT:          0  MISS:          0
LLC PREFETCH  REQUESTED:       5429  ISSUED:       5429  USEFUL:       5223  USELESS:        170
LLC AVERAGE MISS LATENCY: 133.85 cycles

DRAM Statistics
 CHANNEL 0
 RQ ROW_BUFFER_HIT:       7181  ROW_BUFFER_MISS:      17573
 DBUS AVG_CONGESTED_CYCLE:    3.74576
 WQ ROW_BUFFER_HIT:          0  ROW_BUFFER_MISS:          0  FULL:          0


CPU 0 Branch Prediction Accuracy: 88.0913% MPKI: 8.19188 Average ROB Occupancy at Mispredict: 28.1432
Branch type MPKI
BRANCH_DIRECT_JUMP: 1.8e-05
BRANCH_INDIRECT: 2.6e-05
BRANCH_CONDITIONAL: 8.19183
BRANCH_DIRECT_CALL: 4e-06
BRANCH_INDIRECT_CALL: 0
BRANCH_RETURN: 4e-06

