/home/caslab/workspace/sim/ChampSim/bin/champsim --warmup_instructions 200000000 --simulation_instructions 500000000/ /home/caslab/workspace/sim/traces/speccpu_by_champsim435.gromacs-111B.champsimtrace.xz
start simulation for 435.gromacs-111B.champsimtrace.xz

*** ChampSim Multicore Out-of-Order Simulator ***

Warmup Instructions: 200000000
Simulation Instructions: 500000000
Number of CPUs: 1
Off-chip DRAM Size: 4 GiB Channels: 1 Width: 64-bit Data Rate: 3200 MT/s

VirtualMemory physical capacity: 8588881920 num_ppages: 2096895
VirtualMemory page size: 4096 log2_page_size: 12

CPU 0 runs /home/caslab/workspace/sim/traces/speccpu_by_champsim/435.gromacs-111B.champsimtrace.xz
CPU 0 Bimodal branch predictor
Basic BTB sets: 1024 ways: 8 indirect buffer size: 4096 RAS size: 64
LLC next line prefetcher
WARNING: The extended signature CACHE::prefetch_line(ip, base_addr, pf_addr, fill_this_level, prefetch_metadata) is deprecated.
WARNING: Use CACHE::prefetch_line(pf_addr, fill_this_level, prefetch_metadata) instead.
Heartbeat CPU 0 instructions: 10000000 cycles: 2750274 heartbeat IPC: 3.636 cumulative IPC: 3.636 (Simulation time: 0 hr 0 min 26 sec) 
Heartbeat CPU 0 instructions: 20000001 cycles: 5377602 heartbeat IPC: 3.80615 cumulative IPC: 3.71913 (Simulation time: 0 hr 0 min 49 sec) 
Heartbeat CPU 0 instructions: 30000000 cycles: 8102150 heartbeat IPC: 3.67033 cumulative IPC: 3.70272 (Simulation time: 0 hr 1 min 15 sec) 
Heartbeat CPU 0 instructions: 40000003 cycles: 10744057 heartbeat IPC: 3.78515 cumulative IPC: 3.72299 (Simulation time: 0 hr 1 min 38 sec) 
Heartbeat CPU 0 instructions: 50000000 cycles: 13454610 heartbeat IPC: 3.68928 cumulative IPC: 3.7162 (Simulation time: 0 hr 2 min 3 sec) 
Heartbeat CPU 0 instructions: 60000003 cycles: 16134550 heartbeat IPC: 3.73143 cumulative IPC: 3.71873 (Simulation time: 0 hr 2 min 28 sec) 
Heartbeat CPU 0 instructions: 70000002 cycles: 18805895 heartbeat IPC: 3.74343 cumulative IPC: 3.72224 (Simulation time: 0 hr 2 min 53 sec) 
Heartbeat CPU 0 instructions: 80000000 cycles: 21525735 heartbeat IPC: 3.67669 cumulative IPC: 3.71648 (Simulation time: 0 hr 3 min 18 sec) 
Heartbeat CPU 0 instructions: 90000001 cycles: 24153734 heartbeat IPC: 3.80518 cumulative IPC: 3.72613 (Simulation time: 0 hr 3 min 42 sec) 
Heartbeat CPU 0 instructions: 100000003 cycles: 26884497 heartbeat IPC: 3.66198 cumulative IPC: 3.71962 (Simulation time: 0 hr 4 min 7 sec) 
Heartbeat CPU 0 instructions: 110000000 cycles: 29502990 heartbeat IPC: 3.81899 cumulative IPC: 3.72844 (Simulation time: 0 hr 4 min 31 sec) 
Heartbeat CPU 0 instructions: 120000001 cycles: 32222822 heartbeat IPC: 3.6767 cumulative IPC: 3.72407 (Simulation time: 0 hr 4 min 57 sec) 
Heartbeat CPU 0 instructions: 130000003 cycles: 34882965 heartbeat IPC: 3.7592 cumulative IPC: 3.72675 (Simulation time: 0 hr 5 min 22 sec) 
Heartbeat CPU 0 instructions: 140000003 cycles: 37563178 heartbeat IPC: 3.73105 cumulative IPC: 3.72705 (Simulation time: 0 hr 5 min 46 sec) 
Heartbeat CPU 0 instructions: 150000000 cycles: 40259010 heartbeat IPC: 3.70943 cumulative IPC: 3.72587 (Simulation time: 0 hr 6 min 11 sec) 
Heartbeat CPU 0 instructions: 160000002 cycles: 42914154 heartbeat IPC: 3.76627 cumulative IPC: 3.72837 (Simulation time: 0 hr 6 min 35 sec) 
Heartbeat CPU 0 instructions: 170000003 cycles: 45627446 heartbeat IPC: 3.68556 cumulative IPC: 3.72583 (Simulation time: 0 hr 7 min 0 sec) 
Heartbeat CPU 0 instructions: 180000002 cycles: 48277567 heartbeat IPC: 3.77341 cumulative IPC: 3.72844 (Simulation time: 0 hr 7 min 24 sec) 
Heartbeat CPU 0 instructions: 190000002 cycles: 50962889 heartbeat IPC: 3.72395 cumulative IPC: 3.7282 (Simulation time: 0 hr 7 min 48 sec) 
Heartbeat CPU 0 instructions: 200000000 cycles: 53651567 heartbeat IPC: 3.7193 cumulative IPC: 3.72776 (Simulation time: 0 hr 8 min 13 sec) 

Warmup complete CPU 0 instructions: 200000005 cycles: 53651568 (Simulation time: 0 hr 8 min 13 sec) 

Heartbeat CPU 0 instructions: 210000002 cycles: 58433869 heartbeat IPC: 2.09104 cumulative IPC: 2.09104 (Simulation time: 0 hr 8 min 36 sec) 
Heartbeat CPU 0 instructions: 220000003 cycles: 64744234 heartbeat IPC: 1.58469 cumulative IPC: 1.80299 (Simulation time: 0 hr 9 min 1 sec) 
Heartbeat CPU 0 instructions: 230000000 cycles: 70150884 heartbeat IPC: 1.84957 cumulative IPC: 1.81826 (Simulation time: 0 hr 9 min 25 sec) 
Heartbeat CPU 0 instructions: 240000003 cycles: 75454075 heartbeat IPC: 1.88566 cumulative IPC: 1.83465 (Simulation time: 0 hr 9 min 49 sec) 
Heartbeat CPU 0 instructions: 250000003 cycles: 81517653 heartbeat IPC: 1.64919 cumulative IPC: 1.7943 (Simulation time: 0 hr 10 min 13 sec) 
Heartbeat CPU 0 instructions: 260000001 cycles: 86858367 heartbeat IPC: 1.87241 cumulative IPC: 1.80686 (Simulation time: 0 hr 10 min 37 sec) 
Heartbeat CPU 0 instructions: 270000000 cycles: 92290284 heartbeat IPC: 1.84097 cumulative IPC: 1.81165 (Simulation time: 0 hr 11 min 1 sec) 
Heartbeat CPU 0 instructions: 280000000 cycles: 98687996 heartbeat IPC: 1.56306 cumulative IPC: 1.77634 (Simulation time: 0 hr 11 min 24 sec) 
Heartbeat CPU 0 instructions: 290000000 cycles: 104309443 heartbeat IPC: 1.7789 cumulative IPC: 1.77662 (Simulation time: 0 hr 11 min 48 sec) 
Heartbeat CPU 0 instructions: 300000004 cycles: 109832697 heartbeat IPC: 1.81053 cumulative IPC: 1.77996 (Simulation time: 0 hr 12 min 12 sec) 
Heartbeat CPU 0 instructions: 310000000 cycles: 116368422 heartbeat IPC: 1.53005 cumulative IPC: 1.75391 (Simulation time: 0 hr 12 min 35 sec) 
Heartbeat CPU 0 instructions: 320000003 cycles: 121794705 heartbeat IPC: 1.84288 cumulative IPC: 1.761 (Simulation time: 0 hr 12 min 59 sec) 
Heartbeat CPU 0 instructions: 330000001 cycles: 127589150 heartbeat IPC: 1.72579 cumulative IPC: 1.75824 (Simulation time: 0 hr 13 min 23 sec) 
Heartbeat CPU 0 instructions: 340000002 cycles: 133923087 heartbeat IPC: 1.5788 cumulative IPC: 1.74408 (Simulation time: 0 hr 13 min 47 sec) 
Heartbeat CPU 0 instructions: 350000000 cycles: 139557571 heartbeat IPC: 1.77479 cumulative IPC: 1.74609 (Simulation time: 0 hr 14 min 10 sec) 
Heartbeat CPU 0 instructions: 360000002 cycles: 145066892 heartbeat IPC: 1.81511 cumulative IPC: 1.75025 (Simulation time: 0 hr 14 min 35 sec) 
Heartbeat CPU 0 instructions: 370000002 cycles: 151594112 heartbeat IPC: 1.53205 cumulative IPC: 1.73571 (Simulation time: 0 hr 14 min 59 sec) 
Heartbeat CPU 0 instructions: 380000002 cycles: 156466038 heartbeat IPC: 2.05258 cumulative IPC: 1.75073 (Simulation time: 0 hr 15 min 22 sec) 
Heartbeat CPU 0 instructions: 390000002 cycles: 162889501 heartbeat IPC: 1.55679 cumulative IPC: 1.73932 (Simulation time: 0 hr 15 min 46 sec) 
Heartbeat CPU 0 instructions: 400000000 cycles: 168991232 heartbeat IPC: 1.63888 cumulative IPC: 1.73401 (Simulation time: 0 hr 16 min 10 sec) 
Heartbeat CPU 0 instructions: 410000001 cycles: 174299253 heartbeat IPC: 1.88394 cumulative IPC: 1.74061 (Simulation time: 0 hr 16 min 34 sec) 
Heartbeat CPU 0 instructions: 420000002 cycles: 180464662 heartbeat IPC: 1.62195 cumulative IPC: 1.73484 (Simulation time: 0 hr 16 min 58 sec) 
Heartbeat CPU 0 instructions: 430000000 cycles: 186521112 heartbeat IPC: 1.65113 cumulative IPC: 1.73102 (Simulation time: 0 hr 17 min 21 sec) 
Heartbeat CPU 0 instructions: 440000000 cycles: 191713697 heartbeat IPC: 1.92582 cumulative IPC: 1.73835 (Simulation time: 0 hr 17 min 45 sec) 
Heartbeat CPU 0 instructions: 450000002 cycles: 198388177 heartbeat IPC: 1.49824 cumulative IPC: 1.72728 (Simulation time: 0 hr 18 min 9 sec) 
Heartbeat CPU 0 instructions: 460000003 cycles: 203701867 heartbeat IPC: 1.88193 cumulative IPC: 1.73275 (Simulation time: 0 hr 18 min 32 sec) 
Heartbeat CPU 0 instructions: 470000004 cycles: 209366307 heartbeat IPC: 1.7654 cumulative IPC: 1.73394 (Simulation time: 0 hr 18 min 57 sec) 
Heartbeat CPU 0 instructions: 480000000 cycles: 215823354 heartbeat IPC: 1.54869 cumulative IPC: 1.72656 (Simulation time: 0 hr 19 min 21 sec) 
Heartbeat CPU 0 instructions: 490000001 cycles: 221233250 heartbeat IPC: 1.84846 cumulative IPC: 1.7305 (Simulation time: 0 hr 19 min 45 sec) 
Heartbeat CPU 0 instructions: 500000003 cycles: 226586947 heartbeat IPC: 1.86787 cumulative IPC: 1.73475 (Simulation time: 0 hr 20 min 8 sec) 
Heartbeat CPU 0 instructions: 510000003 cycles: 232944290 heartbeat IPC: 1.57298 cumulative IPC: 1.72902 (Simulation time: 0 hr 20 min 32 sec) 
Heartbeat CPU 0 instructions: 520000001 cycles: 237788317 heartbeat IPC: 2.0644 cumulative IPC: 1.73784 (Simulation time: 0 hr 20 min 56 sec) 
Heartbeat CPU 0 instructions: 530000003 cycles: 243502789 heartbeat IPC: 1.74994 cumulative IPC: 1.7382 (Simulation time: 0 hr 21 min 20 sec) 
Heartbeat CPU 0 instructions: 540000004 cycles: 248761271 heartbeat IPC: 1.90169 cumulative IPC: 1.74261 (Simulation time: 0 hr 21 min 50 sec) 
Heartbeat CPU 0 instructions: 550000000 cycles: 252606112 heartbeat IPC: 2.60089 cumulative IPC: 1.7592 (Simulation time: 0 hr 22 min 17 sec) 
Heartbeat CPU 0 instructions: 560000002 cycles: 255499197 heartbeat IPC: 3.45652 cumulative IPC: 1.78352 (Simulation time: 0 hr 22 min 41 sec) 
Heartbeat CPU 0 instructions: 570000001 cycles: 258332943 heartbeat IPC: 3.5289 cumulative IPC: 1.80769 (Simulation time: 0 hr 23 min 5 sec) 
Heartbeat CPU 0 instructions: 580000000 cycles: 261167482 heartbeat IPC: 3.52791 cumulative IPC: 1.83118 (Simulation time: 0 hr 23 min 29 sec) 
Heartbeat CPU 0 instructions: 590000001 cycles: 263998330 heartbeat IPC: 3.53251 cumulative IPC: 1.85408 (Simulation time: 0 hr 23 min 52 sec) 
Heartbeat CPU 0 instructions: 600000001 cycles: 266828385 heartbeat IPC: 3.5335 cumulative IPC: 1.87638 (Simulation time: 0 hr 24 min 17 sec) 
Heartbeat CPU 0 instructions: 610000000 cycles: 269653596 heartbeat IPC: 3.53956 cumulative IPC: 1.89813 (Simulation time: 0 hr 24 min 41 sec) 
Heartbeat CPU 0 instructions: 620000000 cycles: 272478585 heartbeat IPC: 3.53984 cumulative IPC: 1.91932 (Simulation time: 0 hr 25 min 5 sec) 
Heartbeat CPU 0 instructions: 630000000 cycles: 275303739 heartbeat IPC: 3.53963 cumulative IPC: 1.93998 (Simulation time: 0 hr 25 min 29 sec) 
Heartbeat CPU 0 instructions: 640000003 cycles: 278129355 heartbeat IPC: 3.53905 cumulative IPC: 1.9601 (Simulation time: 0 hr 25 min 53 sec) 
Heartbeat CPU 0 instructions: 650000004 cycles: 280961621 heartbeat IPC: 3.53074 cumulative IPC: 1.97967 (Simulation time: 0 hr 26 min 17 sec) 
Heartbeat CPU 0 instructions: 660000002 cycles: 283796854 heartbeat IPC: 3.52705 cumulative IPC: 1.99874 (Simulation time: 0 hr 26 min 42 sec) 
Heartbeat CPU 0 instructions: 670000001 cycles: 286630821 heartbeat IPC: 3.52862 cumulative IPC: 2.01735 (Simulation time: 0 hr 27 min 6 sec) 
Heartbeat CPU 0 instructions: 680000004 cycles: 289467380 heartbeat IPC: 3.5254 cumulative IPC: 2.03549 (Simulation time: 0 hr 27 min 29 sec) 
Heartbeat CPU 0 instructions: 690000001 cycles: 292304429 heartbeat IPC: 3.52479 cumulative IPC: 2.05319 (Simulation time: 0 hr 27 min 53 sec) 
Heartbeat CPU 0 instructions: 700000000 cycles: 295140656 heartbeat IPC: 3.52581 cumulative IPC: 2.07049 (Simulation time: 0 hr 28 min 17 sec) 
Finished CPU 0 instructions: 500000000 cycles: 241489089 cumulative IPC: 2.07049 (Simulation time: 0 hr 28 min 17 sec) 

ChampSim completed all CPUs

Region of Interest Statistics

CPU 0 cumulative IPC: 2.07049 instructions: 500000000 cycles: 241489089
cpu0_L1I TOTAL     ACCESS:   39660809  HIT:   39660693  MISS:        116
cpu0_L1I LOAD      ACCESS:   39660809  HIT:   39660693  MISS:        116
cpu0_L1I RFO       ACCESS:          0  HIT:          0  MISS:          0
cpu0_L1I PREFETCH  ACCESS:          0  HIT:          0  MISS:          0
cpu0_L1I WRITEBACK ACCESS:          0  HIT:          0  MISS:          0
cpu0_L1I TRANSLATION ACCESS:          0  HIT:          0  MISS:          0
cpu0_L1I PREFETCH  REQUESTED:          0  ISSUED:          0  USEFUL:          0  USELESS:          0
cpu0_L1I AVERAGE MISS LATENCY: 135.405 cycles
cpu0_DTLB TOTAL     ACCESS:   83923050  HIT:   83918393  MISS:       4657
cpu0_DTLB LOAD      ACCESS:   58654116  HIT:   58650617  MISS:       3499
cpu0_DTLB RFO       ACCESS:   25268934  HIT:   25267776  MISS:       1158
cpu0_DTLB PREFETCH  ACCESS:          0  HIT:          0  MISS:          0
cpu0_DTLB WRITEBACK ACCESS:          0  HIT:          0  MISS:          0
cpu0_DTLB TRANSLATION ACCESS:          0  HIT:          0  MISS:          0
cpu0_DTLB PREFETCH  REQUESTED:          0  ISSUED:          0  USEFUL:          0  USELESS:          0
cpu0_DTLB AVERAGE MISS LATENCY: 41.0062 cycles
cpu0_ITLB TOTAL     ACCESS:   22481949  HIT:   22481943  MISS:          6
cpu0_ITLB LOAD      ACCESS:   22481949  HIT:   22481943  MISS:          6
cpu0_ITLB RFO       ACCESS:          0  HIT:          0  MISS:          0
cpu0_ITLB PREFETCH  ACCESS:          0  HIT:          0  MISS:          0
cpu0_ITLB WRITEBACK ACCESS:          0  HIT:          0  MISS:          0
cpu0_ITLB TRANSLATION ACCESS:          0  HIT:          0  MISS:          0
cpu0_ITLB PREFETCH  REQUESTED:          0  ISSUED:          0  USEFUL:          0  USELESS:          0
cpu0_ITLB AVERAGE MISS LATENCY: 217 cycles
cpu0_STLB TOTAL     ACCESS:       4663  HIT:       3938  MISS:        725
cpu0_STLB LOAD      ACCESS:       3505  HIT:       3089  MISS:        416
cpu0_STLB RFO       ACCESS:       1158  HIT:        849  MISS:        309
cpu0_STLB PREFETCH  ACCESS:          0  HIT:          0  MISS:          0
cpu0_STLB WRITEBACK ACCESS:          0  HIT:          0  MISS:          0
cpu0_STLB TRANSLATION ACCESS:          0  HIT:          0  MISS:          0
cpu0_STLB PREFETCH  REQUESTED:          0  ISSUED:          0  USEFUL:          0  USELESS:          0
cpu0_STLB AVERAGE MISS LATENCY: 207.28 cycles
cpu0_L1D TOTAL     ACCESS:  133410808  HIT:  133345951  MISS:      64857
cpu0_L1D LOAD      ACCESS:   68620430  HIT:   68573923  MISS:      46507
cpu0_L1D RFO       ACCESS:   64789661  HIT:   64771311  MISS:      18350
cpu0_L1D PREFETCH  ACCESS:          0  HIT:          0  MISS:          0
cpu0_L1D WRITEBACK ACCESS:          0  HIT:          0  MISS:          0
cpu0_L1D TRANSLATION ACCESS:        717  HIT:        717  MISS:          0
cpu0_L1D PREFETCH  REQUESTED:          0  ISSUED:          0  USEFUL:          0  USELESS:          0
cpu0_L1D AVERAGE MISS LATENCY: 69.4116 cycles
cpu0_L2C TOTAL     ACCESS:      87777  HIT:      39684  MISS:      48093
cpu0_L2C LOAD      ACCESS:      46623  HIT:      16880  MISS:      29743
cpu0_L2C RFO       ACCESS:      18350  HIT:          0  MISS:      18350
cpu0_L2C PREFETCH  ACCESS:          0  HIT:          0  MISS:          0
cpu0_L2C WRITEBACK ACCESS:      22804  HIT:      22804  MISS:          0
cpu0_L2C TRANSLATION ACCESS:          0  HIT:          0  MISS:          0
cpu0_L2C PREFETCH  REQUESTED:          0  ISSUED:          0  USEFUL:          0  USELESS:          0
cpu0_L2C AVERAGE MISS LATENCY: 79.0655 cycles
LLC TOTAL     ACCESS:      77330  HIT:      28899  MISS:      48431
LLC LOAD      ACCESS:      29743  HIT:      27231  MISS:       2512
LLC RFO       ACCESS:      18350  HIT:         14  MISS:      18336
LLC PREFETCH  ACCESS:      29237  HIT:       1654  MISS:      27583
LLC WRITEBACK ACCESS:          0  HIT:          0  MISS:          0
LLC TRANSLATION ACCESS:          0  HIT:          0  MISS:          0
LLC PREFETCH  REQUESTED:      29743  ISSUED:      29743  USEFUL:      27378  USELESS:        569
LLC AVERAGE MISS LATENCY: 121.258 cycles

DRAM Statistics
 CHANNEL 0
 RQ ROW_BUFFER_HIT:      21389  ROW_BUFFER_MISS:      27042
 DBUS AVG_CONGESTED_CYCLE:    3.67817
 WQ ROW_BUFFER_HIT:          0  ROW_BUFFER_MISS:          0  FULL:          0


CPU 0 Branch Prediction Accuracy: 87.4816% MPKI: 6.06077 Average ROB Occupancy at Mispredict: 31.0154
Branch type MPKI
BRANCH_DIRECT_JUMP: 4.4e-05
BRANCH_INDIRECT: 6.4e-05
BRANCH_CONDITIONAL: 6.06061
BRANCH_DIRECT_CALL: 2.8e-05
BRANCH_INDIRECT_CALL: 0
BRANCH_RETURN: 2.8e-05

