/home/caslab/workspace/sim/ChampSim/bin/champsim --warmup_instructions 200000000 --simulation_instructions 500000000/ /home/caslab/workspace/sim/traces/speccpu_by_champsim436.cactusADM-1804B.champsimtrace.xz
start simulation for 436.cactusADM-1804B.champsimtrace.xz

*** ChampSim Multicore Out-of-Order Simulator ***

Warmup Instructions: 200000000
Simulation Instructions: 500000000
Number of CPUs: 1
Off-chip DRAM Size: 4 GiB Channels: 1 Width: 64-bit Data Rate: 3200 MT/s

VirtualMemory physical capacity: 8588881920 num_ppages: 2096895
VirtualMemory page size: 4096 log2_page_size: 12

CPU 0 runs /home/caslab/workspace/sim/traces/speccpu_by_champsim/436.cactusADM-1804B.champsimtrace.xz
CPU 0 Bimodal branch predictor
Basic BTB sets: 1024 ways: 8 indirect buffer size: 4096 RAS size: 64
LLC next line prefetcher
WARNING: The extended signature CACHE::prefetch_line(ip, base_addr, pf_addr, fill_this_level, prefetch_metadata) is deprecated.
WARNING: Use CACHE::prefetch_line(pf_addr, fill_this_level, prefetch_metadata) instead.
Heartbeat CPU 0 instructions: 10000001 cycles: 4112256 heartbeat IPC: 2.43176 cumulative IPC: 2.43176 (Simulation time: 0 hr 0 min 48 sec) 
Heartbeat CPU 0 instructions: 20000001 cycles: 8145731 heartbeat IPC: 2.47925 cumulative IPC: 2.45527 (Simulation time: 0 hr 1 min 35 sec) 
Heartbeat CPU 0 instructions: 30000004 cycles: 12257897 heartbeat IPC: 2.43181 cumulative IPC: 2.4474 (Simulation time: 0 hr 2 min 23 sec) 
Heartbeat CPU 0 instructions: 40000003 cycles: 16370229 heartbeat IPC: 2.43171 cumulative IPC: 2.44346 (Simulation time: 0 hr 3 min 11 sec) 
Heartbeat CPU 0 instructions: 50000000 cycles: 20404970 heartbeat IPC: 2.47847 cumulative IPC: 2.45038 (Simulation time: 0 hr 3 min 58 sec) 
Heartbeat CPU 0 instructions: 60000004 cycles: 24518044 heartbeat IPC: 2.43127 cumulative IPC: 2.44718 (Simulation time: 0 hr 4 min 47 sec) 
Heartbeat CPU 0 instructions: 70000004 cycles: 28552255 heartbeat IPC: 2.4788 cumulative IPC: 2.45165 (Simulation time: 0 hr 5 min 34 sec) 
Heartbeat CPU 0 instructions: 80000001 cycles: 32664806 heartbeat IPC: 2.43158 cumulative IPC: 2.44912 (Simulation time: 0 hr 6 min 23 sec) 
Heartbeat CPU 0 instructions: 90000004 cycles: 36698924 heartbeat IPC: 2.47886 cumulative IPC: 2.45239 (Simulation time: 0 hr 7 min 10 sec) 
Heartbeat CPU 0 instructions: 100000001 cycles: 40811304 heartbeat IPC: 2.43168 cumulative IPC: 2.4503 (Simulation time: 0 hr 7 min 59 sec) 
Heartbeat CPU 0 instructions: 110000003 cycles: 44845513 heartbeat IPC: 2.4788 cumulative IPC: 2.45287 (Simulation time: 0 hr 8 min 47 sec) 
Heartbeat CPU 0 instructions: 120000001 cycles: 48958087 heartbeat IPC: 2.43157 cumulative IPC: 2.45108 (Simulation time: 0 hr 9 min 34 sec) 
Heartbeat CPU 0 instructions: 130000004 cycles: 53050247 heartbeat IPC: 2.4437 cumulative IPC: 2.45051 (Simulation time: 0 hr 10 min 22 sec) 
Heartbeat CPU 0 instructions: 140000003 cycles: 57104636 heartbeat IPC: 2.46646 cumulative IPC: 2.45164 (Simulation time: 0 hr 11 min 10 sec) 
Heartbeat CPU 0 instructions: 150000002 cycles: 61217509 heartbeat IPC: 2.43139 cumulative IPC: 2.45028 (Simulation time: 0 hr 11 min 58 sec) 
Heartbeat CPU 0 instructions: 160000004 cycles: 65252200 heartbeat IPC: 2.47851 cumulative IPC: 2.45202 (Simulation time: 0 hr 12 min 46 sec) 
Heartbeat CPU 0 instructions: 170000001 cycles: 69365773 heartbeat IPC: 2.43098 cumulative IPC: 2.45078 (Simulation time: 0 hr 13 min 34 sec) 
Heartbeat CPU 0 instructions: 180000001 cycles: 73400768 heartbeat IPC: 2.47832 cumulative IPC: 2.45229 (Simulation time: 0 hr 14 min 21 sec) 
Heartbeat CPU 0 instructions: 190000004 cycles: 77514711 heartbeat IPC: 2.43076 cumulative IPC: 2.45115 (Simulation time: 0 hr 15 min 9 sec) 
Heartbeat CPU 0 instructions: 200000000 cycles: 81549873 heartbeat IPC: 2.47821 cumulative IPC: 2.45249 (Simulation time: 0 hr 15 min 57 sec) 

Warmup complete CPU 0 instructions: 200000002 cycles: 81549875 (Simulation time: 0 hr 15 min 57 sec) 

Heartbeat CPU 0 instructions: 210000001 cycles: 87615058 heartbeat IPC: 1.64875 cumulative IPC: 1.64875 (Simulation time: 0 hr 16 min 54 sec) 
Heartbeat CPU 0 instructions: 220000002 cycles: 94511018 heartbeat IPC: 1.45012 cumulative IPC: 1.54307 (Simulation time: 0 hr 17 min 54 sec) 
Heartbeat CPU 0 instructions: 230000000 cycles: 101349029 heartbeat IPC: 1.46241 cumulative IPC: 1.51522 (Simulation time: 0 hr 18 min 54 sec) 
Heartbeat CPU 0 instructions: 240000002 cycles: 107415741 heartbeat IPC: 1.64834 cumulative IPC: 1.54644 (Simulation time: 0 hr 19 min 51 sec) 
Heartbeat CPU 0 instructions: 250000002 cycles: 115079356 heartbeat IPC: 1.30487 cumulative IPC: 1.49123 (Simulation time: 0 hr 20 min 53 sec) 
Heartbeat CPU 0 instructions: 260000002 cycles: 121141716 heartbeat IPC: 1.64952 cumulative IPC: 1.51546 (Simulation time: 0 hr 21 min 50 sec) 
Heartbeat CPU 0 instructions: 270000003 cycles: 128802958 heartbeat IPC: 1.30527 cumulative IPC: 1.48138 (Simulation time: 0 hr 22 min 53 sec) 
Heartbeat CPU 0 instructions: 280000001 cycles: 134868141 heartbeat IPC: 1.64875 cumulative IPC: 1.50042 (Simulation time: 0 hr 23 min 50 sec) 
Heartbeat CPU 0 instructions: 290000000 cycles: 142547198 heartbeat IPC: 1.30224 cumulative IPC: 1.47547 (Simulation time: 0 hr 24 min 53 sec) 
Heartbeat CPU 0 instructions: 300000000 cycles: 148609699 heartbeat IPC: 1.64948 cumulative IPC: 1.49121 (Simulation time: 0 hr 25 min 50 sec) 
Heartbeat CPU 0 instructions: 310000003 cycles: 155944938 heartbeat IPC: 1.36328 cumulative IPC: 1.47859 (Simulation time: 0 hr 26 min 51 sec) 
Heartbeat CPU 0 instructions: 320000002 cycles: 162368853 heartbeat IPC: 1.55668 cumulative IPC: 1.4848 (Simulation time: 0 hr 27 min 49 sec) 
Heartbeat CPU 0 instructions: 330000003 cycles: 168435984 heartbeat IPC: 1.64823 cumulative IPC: 1.49621 (Simulation time: 0 hr 28 min 46 sec) 
Heartbeat CPU 0 instructions: 340000004 cycles: 176173758 heartbeat IPC: 1.29236 cumulative IPC: 1.47954 (Simulation time: 0 hr 29 min 49 sec) 
Heartbeat CPU 0 instructions: 350000002 cycles: 182241064 heartbeat IPC: 1.64818 cumulative IPC: 1.4897 (Simulation time: 0 hr 30 min 46 sec) 
Heartbeat CPU 0 instructions: 360000002 cycles: 190081839 heartbeat IPC: 1.27538 cumulative IPC: 1.47422 (Simulation time: 0 hr 31 min 49 sec) 
Heartbeat CPU 0 instructions: 370000001 cycles: 196145830 heartbeat IPC: 1.64908 cumulative IPC: 1.48347 (Simulation time: 0 hr 32 min 46 sec) 
Heartbeat CPU 0 instructions: 380000004 cycles: 204084822 heartbeat IPC: 1.25961 cumulative IPC: 1.46897 (Simulation time: 0 hr 33 min 49 sec) 
Heartbeat CPU 0 instructions: 390000003 cycles: 210152485 heartbeat IPC: 1.64808 cumulative IPC: 1.47742 (Simulation time: 0 hr 34 min 46 sec) 
Heartbeat CPU 0 instructions: 400000003 cycles: 218160062 heartbeat IPC: 1.24882 cumulative IPC: 1.46402 (Simulation time: 0 hr 35 min 50 sec) 
Heartbeat CPU 0 instructions: 410000003 cycles: 224226015 heartbeat IPC: 1.64855 cumulative IPC: 1.47186 (Simulation time: 0 hr 36 min 47 sec) 
Heartbeat CPU 0 instructions: 420000003 cycles: 230292501 heartbeat IPC: 1.6484 cumulative IPC: 1.47906 (Simulation time: 0 hr 37 min 44 sec) 
Heartbeat CPU 0 instructions: 430000003 cycles: 238333764 heartbeat IPC: 1.24359 cumulative IPC: 1.46699 (Simulation time: 0 hr 38 min 48 sec) 
Heartbeat CPU 0 instructions: 440000003 cycles: 244407163 heartbeat IPC: 1.64652 cumulative IPC: 1.47368 (Simulation time: 0 hr 39 min 46 sec) 
Heartbeat CPU 0 instructions: 450000002 cycles: 252494117 heartbeat IPC: 1.23656 cumulative IPC: 1.46247 (Simulation time: 0 hr 40 min 50 sec) 
Heartbeat CPU 0 instructions: 460000004 cycles: 258558510 heartbeat IPC: 1.64897 cumulative IPC: 1.46885 (Simulation time: 0 hr 41 min 47 sec) 
Heartbeat CPU 0 instructions: 470000002 cycles: 266782653 heartbeat IPC: 1.21593 cumulative IPC: 1.45763 (Simulation time: 0 hr 42 min 52 sec) 
Heartbeat CPU 0 instructions: 480000001 cycles: 272846462 heartbeat IPC: 1.64913 cumulative IPC: 1.4637 (Simulation time: 0 hr 43 min 49 sec) 
Heartbeat CPU 0 instructions: 490000002 cycles: 281027790 heartbeat IPC: 1.2223 cumulative IPC: 1.4538 (Simulation time: 0 hr 44 min 53 sec) 
Heartbeat CPU 0 instructions: 500000003 cycles: 287088934 heartbeat IPC: 1.64985 cumulative IPC: 1.45958 (Simulation time: 0 hr 45 min 50 sec) 
Heartbeat CPU 0 instructions: 510000001 cycles: 293152059 heartbeat IPC: 1.64931 cumulative IPC: 1.46501 (Simulation time: 0 hr 46 min 47 sec) 
Heartbeat CPU 0 instructions: 520000004 cycles: 301422211 heartbeat IPC: 1.20917 cumulative IPC: 1.45539 (Simulation time: 0 hr 47 min 53 sec) 
Heartbeat CPU 0 instructions: 530000004 cycles: 307487895 heartbeat IPC: 1.64862 cumulative IPC: 1.46058 (Simulation time: 0 hr 48 min 50 sec) 
Heartbeat CPU 0 instructions: 540000002 cycles: 315715375 heartbeat IPC: 1.21544 cumulative IPC: 1.45196 (Simulation time: 0 hr 49 min 54 sec) 
Heartbeat CPU 0 instructions: 550000000 cycles: 321784016 heartbeat IPC: 1.64782 cumulative IPC: 1.45691 (Simulation time: 0 hr 50 min 51 sec) 
Heartbeat CPU 0 instructions: 560000001 cycles: 330119522 heartbeat IPC: 1.19969 cumulative IPC: 1.44829 (Simulation time: 0 hr 51 min 56 sec) 
Heartbeat CPU 0 instructions: 570000000 cycles: 336186908 heartbeat IPC: 1.64816 cumulative IPC: 1.45305 (Simulation time: 0 hr 52 min 53 sec) 
Heartbeat CPU 0 instructions: 580000001 cycles: 344572153 heartbeat IPC: 1.19257 cumulative IPC: 1.44474 (Simulation time: 0 hr 53 min 58 sec) 
Heartbeat CPU 0 instructions: 590000000 cycles: 350650672 heartbeat IPC: 1.64514 cumulative IPC: 1.44927 (Simulation time: 0 hr 54 min 56 sec) 
Heartbeat CPU 0 instructions: 600000001 cycles: 356716784 heartbeat IPC: 1.6485 cumulative IPC: 1.45366 (Simulation time: 0 hr 55 min 53 sec) 
Heartbeat CPU 0 instructions: 610000002 cycles: 365064024 heartbeat IPC: 1.198 cumulative IPC: 1.44614 (Simulation time: 0 hr 56 min 57 sec) 
Heartbeat CPU 0 instructions: 620000001 cycles: 371130693 heartbeat IPC: 1.64835 cumulative IPC: 1.45037 (Simulation time: 0 hr 57 min 54 sec) 
Heartbeat CPU 0 instructions: 630000002 cycles: 379522566 heartbeat IPC: 1.19163 cumulative IPC: 1.44309 (Simulation time: 0 hr 58 min 59 sec) 
Heartbeat CPU 0 instructions: 640000000 cycles: 385591486 heartbeat IPC: 1.64774 cumulative IPC: 1.44717 (Simulation time: 0 hr 59 min 57 sec) 
Heartbeat CPU 0 instructions: 650000001 cycles: 394024808 heartbeat IPC: 1.18577 cumulative IPC: 1.44012 (Simulation time: 1 hr 1 min 1 sec) 
Heartbeat CPU 0 instructions: 660000000 cycles: 400088077 heartbeat IPC: 1.64928 cumulative IPC: 1.4441 (Simulation time: 1 hr 1 min 59 sec) 
Heartbeat CPU 0 instructions: 670000000 cycles: 408497415 heartbeat IPC: 1.18915 cumulative IPC: 1.43754 (Simulation time: 1 hr 3 min 3 sec) 
Heartbeat CPU 0 instructions: 680000002 cycles: 414562741 heartbeat IPC: 1.64872 cumulative IPC: 1.44139 (Simulation time: 1 hr 4 min 0 sec) 
Heartbeat CPU 0 instructions: 690000000 cycles: 420631240 heartbeat IPC: 1.64785 cumulative IPC: 1.44508 (Simulation time: 1 hr 4 min 58 sec) 
Heartbeat CPU 0 instructions: 700000004 cycles: 429074147 heartbeat IPC: 1.18443 cumulative IPC: 1.43875 (Simulation time: 1 hr 6 min 3 sec) 
Finished CPU 0 instructions: 500000002 cycles: 347524272 cumulative IPC: 1.43875 (Simulation time: 1 hr 6 min 3 sec) 

ChampSim completed all CPUs

Region of Interest Statistics

CPU 0 cumulative IPC: 1.43875 instructions: 500000002 cycles: 347524272
cpu0_L1I TOTAL     ACCESS:   46152606  HIT:   46152606  MISS:          0
cpu0_L1I LOAD      ACCESS:   46152606  HIT:   46152606  MISS:          0
cpu0_L1I RFO       ACCESS:          0  HIT:          0  MISS:          0
cpu0_L1I PREFETCH  ACCESS:          0  HIT:          0  MISS:          0
cpu0_L1I WRITEBACK ACCESS:          0  HIT:          0  MISS:          0
cpu0_L1I TRANSLATION ACCESS:          0  HIT:          0  MISS:          0
cpu0_L1I PREFETCH  REQUESTED:          0  ISSUED:          0  USEFUL:          0  USELESS:          0
cpu0_L1I AVERAGE MISS LATENCY: -nan cycles
cpu0_DTLB TOTAL     ACCESS:  140963625  HIT:  129495269  MISS:   11468356
cpu0_DTLB LOAD      ACCESS:  107641695  HIT:   99819052  MISS:    7822643
cpu0_DTLB RFO       ACCESS:   33321930  HIT:   29676217  MISS:    3645713
cpu0_DTLB PREFETCH  ACCESS:          0  HIT:          0  MISS:          0
cpu0_DTLB WRITEBACK ACCESS:          0  HIT:          0  MISS:          0
cpu0_DTLB TRANSLATION ACCESS:          0  HIT:          0  MISS:          0
cpu0_DTLB PREFETCH  REQUESTED:          0  ISSUED:          0  USEFUL:          0  USELESS:          0
cpu0_DTLB AVERAGE MISS LATENCY: 13.9728 cycles
cpu0_ITLB TOTAL     ACCESS:    6917123  HIT:    6917123  MISS:          0
cpu0_ITLB LOAD      ACCESS:    6917123  HIT:    6917123  MISS:          0
cpu0_ITLB RFO       ACCESS:          0  HIT:          0  MISS:          0
cpu0_ITLB PREFETCH  ACCESS:          0  HIT:          0  MISS:          0
cpu0_ITLB WRITEBACK ACCESS:          0  HIT:          0  MISS:          0
cpu0_ITLB TRANSLATION ACCESS:          0  HIT:          0  MISS:          0
cpu0_ITLB PREFETCH  REQUESTED:          0  ISSUED:          0  USEFUL:          0  USELESS:          0
cpu0_ITLB AVERAGE MISS LATENCY: -nan cycles
cpu0_STLB TOTAL     ACCESS:   11468356  HIT:    5559456  MISS:    5908900
cpu0_STLB LOAD      ACCESS:    7822643  HIT:    4067658  MISS:    3754985
cpu0_STLB RFO       ACCESS:    3645713  HIT:    1491798  MISS:    2153915
cpu0_STLB PREFETCH  ACCESS:          0  HIT:          0  MISS:          0
cpu0_STLB WRITEBACK ACCESS:          0  HIT:          0  MISS:          0
cpu0_STLB TRANSLATION ACCESS:          0  HIT:          0  MISS:          0
cpu0_STLB PREFETCH  REQUESTED:          0  ISSUED:          0  USEFUL:          0  USELESS:          0
cpu0_STLB AVERAGE MISS LATENCY: 8.66067 cycles
cpu0_L1D TOTAL     ACCESS:  222052126  HIT:  219624117  MISS:    2428009
cpu0_L1D LOAD      ACCESS:  141356807  HIT:  139605115  MISS:    1751692
cpu0_L1D RFO       ACCESS:   74786421  HIT:   74110452  MISS:     675969
cpu0_L1D PREFETCH  ACCESS:          0  HIT:          0  MISS:          0
cpu0_L1D WRITEBACK ACCESS:          0  HIT:          0  MISS:          0
cpu0_L1D TRANSLATION ACCESS:    5908898  HIT:    5908550  MISS:        348
cpu0_L1D PREFETCH  REQUESTED:          0  ISSUED:          0  USEFUL:          0  USELESS:          0
cpu0_L1D AVERAGE MISS LATENCY: 203.102 cycles
cpu0_L2C TOTAL     ACCESS:    3183968  HIT:    1957729  MISS:    1226239
cpu0_L2C LOAD      ACCESS:    1751692  HIT:     999970  MISS:     751722
cpu0_L2C RFO       ACCESS:     675969  HIT:     201453  MISS:     474516
cpu0_L2C PREFETCH  ACCESS:          0  HIT:          0  MISS:          0
cpu0_L2C WRITEBACK ACCESS:     755959  HIT:     755959  MISS:          0
cpu0_L2C TRANSLATION ACCESS:        348  HIT:        347  MISS:          1
cpu0_L2C PREFETCH  REQUESTED:          0  ISSUED:          0  USEFUL:          0  USELESS:          0
cpu0_L2C AVERAGE MISS LATENCY: 380.073 cycles
LLC TOTAL     ACCESS:    2070487  HIT:     549315  MISS:    1521172
LLC LOAD      ACCESS:     751722  HIT:     549312  MISS:     202410
LLC RFO       ACCESS:     474516  HIT:          0  MISS:     474516
LLC PREFETCH  ACCESS:     561259  HIT:          3  MISS:     561256
LLC WRITEBACK ACCESS:     282989  HIT:          0  MISS:     282989
LLC TRANSLATION ACCESS:          1  HIT:          0  MISS:          1
LLC PREFETCH  REQUESTED:     751722  ISSUED:     751722  USEFUL:     739773  USELESS:      11995
LLC AVERAGE MISS LATENCY: 517.368 cycles

DRAM Statistics
 CHANNEL 0
 RQ ROW_BUFFER_HIT:        983  ROW_BUFFER_MISS:    1237200
 DBUS AVG_CONGESTED_CYCLE:    3.98646
 WQ ROW_BUFFER_HIT:       5860  ROW_BUFFER_MISS:     267527  FULL:          0


CPU 0 Branch Prediction Accuracy: 98.3507% MPKI: 0.02122 Average ROB Occupancy at Mispredict: 348.494
Branch type MPKI
BRANCH_DIRECT_JUMP: 0
BRANCH_INDIRECT: 0
BRANCH_CONDITIONAL: 0.02122
BRANCH_DIRECT_CALL: 0
BRANCH_INDIRECT_CALL: 0
BRANCH_RETURN: 0

