/home/caslab/workspace/sim/ChampSim/bin/champsim --warmup_instructions 200000000 --simulation_instructions 500000000/ /home/caslab/workspace/sim/traces/speccpu_by_champsim437.leslie3d-265B.champsimtrace.xz
start simulation for 437.leslie3d-265B.champsimtrace.xz

*** ChampSim Multicore Out-of-Order Simulator ***

Warmup Instructions: 200000000
Simulation Instructions: 500000000
Number of CPUs: 1
Off-chip DRAM Size: 4 GiB Channels: 1 Width: 64-bit Data Rate: 3200 MT/s

VirtualMemory physical capacity: 8588881920 num_ppages: 2096895
VirtualMemory page size: 4096 log2_page_size: 12

CPU 0 runs /home/caslab/workspace/sim/traces/speccpu_by_champsim/437.leslie3d-265B.champsimtrace.xz
CPU 0 Bimodal branch predictor
Basic BTB sets: 1024 ways: 8 indirect buffer size: 4096 RAS size: 64
LLC next line prefetcher
WARNING: The extended signature CACHE::prefetch_line(ip, base_addr, pf_addr, fill_this_level, prefetch_metadata) is deprecated.
WARNING: Use CACHE::prefetch_line(pf_addr, fill_this_level, prefetch_metadata) instead.
Heartbeat CPU 0 instructions: 10000003 cycles: 3789766 heartbeat IPC: 2.63869 cumulative IPC: 2.63869 (Simulation time: 0 hr 0 min 35 sec) 
Heartbeat CPU 0 instructions: 20000000 cycles: 7576969 heartbeat IPC: 2.64047 cumulative IPC: 2.63958 (Simulation time: 0 hr 1 min 9 sec) 
Heartbeat CPU 0 instructions: 30000001 cycles: 11365454 heartbeat IPC: 2.63958 cumulative IPC: 2.63958 (Simulation time: 0 hr 1 min 43 sec) 
Heartbeat CPU 0 instructions: 40000000 cycles: 15155090 heartbeat IPC: 2.63878 cumulative IPC: 2.63938 (Simulation time: 0 hr 2 min 17 sec) 
Heartbeat CPU 0 instructions: 50000001 cycles: 18942280 heartbeat IPC: 2.64048 cumulative IPC: 2.6396 (Simulation time: 0 hr 2 min 51 sec) 
Heartbeat CPU 0 instructions: 60000001 cycles: 22730780 heartbeat IPC: 2.63957 cumulative IPC: 2.63959 (Simulation time: 0 hr 3 min 25 sec) 
Heartbeat CPU 0 instructions: 70000001 cycles: 26520415 heartbeat IPC: 2.63878 cumulative IPC: 2.63948 (Simulation time: 0 hr 4 min 0 sec) 
Heartbeat CPU 0 instructions: 80000001 cycles: 30307590 heartbeat IPC: 2.64049 cumulative IPC: 2.6396 (Simulation time: 0 hr 4 min 35 sec) 
Heartbeat CPU 0 instructions: 90000003 cycles: 34096110 heartbeat IPC: 2.63955 cumulative IPC: 2.6396 (Simulation time: 0 hr 5 min 9 sec) 
Heartbeat CPU 0 instructions: 100000004 cycles: 37885743 heartbeat IPC: 2.63878 cumulative IPC: 2.63952 (Simulation time: 0 hr 5 min 43 sec) 
Heartbeat CPU 0 instructions: 110000000 cycles: 41672896 heartbeat IPC: 2.6405 cumulative IPC: 2.63961 (Simulation time: 0 hr 6 min 17 sec) 
Heartbeat CPU 0 instructions: 120000004 cycles: 45461440 heartbeat IPC: 2.63954 cumulative IPC: 2.6396 (Simulation time: 0 hr 6 min 52 sec) 
Heartbeat CPU 0 instructions: 130000000 cycles: 49251070 heartbeat IPC: 2.63878 cumulative IPC: 2.63954 (Simulation time: 0 hr 7 min 26 sec) 
Heartbeat CPU 0 instructions: 140000001 cycles: 53060476 heartbeat IPC: 2.62508 cumulative IPC: 2.6385 (Simulation time: 0 hr 7 min 58 sec) 
Heartbeat CPU 0 instructions: 150000001 cycles: 56976593 heartbeat IPC: 2.55355 cumulative IPC: 2.63266 (Simulation time: 0 hr 8 min 32 sec) 
Heartbeat CPU 0 instructions: 160000000 cycles: 60893379 heartbeat IPC: 2.55311 cumulative IPC: 2.62754 (Simulation time: 0 hr 9 min 6 sec) 
Heartbeat CPU 0 instructions: 170000002 cycles: 64809498 heartbeat IPC: 2.55355 cumulative IPC: 2.62307 (Simulation time: 0 hr 9 min 39 sec) 
Heartbeat CPU 0 instructions: 180000001 cycles: 68726288 heartbeat IPC: 2.55311 cumulative IPC: 2.61909 (Simulation time: 0 hr 10 min 13 sec) 
Heartbeat CPU 0 instructions: 190000002 cycles: 72642405 heartbeat IPC: 2.55355 cumulative IPC: 2.61555 (Simulation time: 0 hr 10 min 47 sec) 
Heartbeat CPU 0 instructions: 200000003 cycles: 76637595 heartbeat IPC: 2.50301 cumulative IPC: 2.60969 (Simulation time: 0 hr 11 min 22 sec) 

Warmup complete CPU 0 instructions: 200000003 cycles: 76637595 (Simulation time: 0 hr 11 min 22 sec) 

Heartbeat CPU 0 instructions: 210000002 cycles: 80761161 heartbeat IPC: 2.42509 cumulative IPC: 2.42509 (Simulation time: 0 hr 12 min 0 sec) 
Heartbeat CPU 0 instructions: 220000004 cycles: 84980930 heartbeat IPC: 2.3698 cumulative IPC: 2.39712 (Simulation time: 0 hr 12 min 38 sec) 
Heartbeat CPU 0 instructions: 230000001 cycles: 90050585 heartbeat IPC: 1.97252 cumulative IPC: 2.23664 (Simulation time: 0 hr 13 min 25 sec) 
Heartbeat CPU 0 instructions: 240000000 cycles: 95155367 heartbeat IPC: 1.95895 cumulative IPC: 2.16009 (Simulation time: 0 hr 14 min 12 sec) 
Heartbeat CPU 0 instructions: 250000000 cycles: 100254327 heartbeat IPC: 1.96118 cumulative IPC: 2.11714 (Simulation time: 0 hr 14 min 58 sec) 
Heartbeat CPU 0 instructions: 260000000 cycles: 105250926 heartbeat IPC: 2.00136 cumulative IPC: 2.09692 (Simulation time: 0 hr 15 min 45 sec) 
Heartbeat CPU 0 instructions: 270000003 cycles: 109776104 heartbeat IPC: 2.20986 cumulative IPC: 2.11235 (Simulation time: 0 hr 16 min 26 sec) 
Heartbeat CPU 0 instructions: 280000001 cycles: 113915810 heartbeat IPC: 2.41563 cumulative IPC: 2.14603 (Simulation time: 0 hr 17 min 5 sec) 
Heartbeat CPU 0 instructions: 290000002 cycles: 117884487 heartbeat IPC: 2.51973 cumulative IPC: 2.18198 (Simulation time: 0 hr 17 min 44 sec) 
Heartbeat CPU 0 instructions: 300000003 cycles: 121840077 heartbeat IPC: 2.52807 cumulative IPC: 2.21227 (Simulation time: 0 hr 18 min 22 sec) 
Heartbeat CPU 0 instructions: 310000001 cycles: 125782903 heartbeat IPC: 2.53625 cumulative IPC: 2.23826 (Simulation time: 0 hr 19 min 1 sec) 
Heartbeat CPU 0 instructions: 320000000 cycles: 129722861 heartbeat IPC: 2.5381 cumulative IPC: 2.26051 (Simulation time: 0 hr 19 min 40 sec) 
Heartbeat CPU 0 instructions: 330000003 cycles: 133677322 heartbeat IPC: 2.52879 cumulative IPC: 2.27911 (Simulation time: 0 hr 20 min 18 sec) 
Heartbeat CPU 0 instructions: 340000003 cycles: 137608993 heartbeat IPC: 2.54345 cumulative IPC: 2.29616 (Simulation time: 0 hr 20 min 57 sec) 
Heartbeat CPU 0 instructions: 350000004 cycles: 141589550 heartbeat IPC: 2.51221 cumulative IPC: 2.3094 (Simulation time: 0 hr 21 min 35 sec) 
Heartbeat CPU 0 instructions: 360000004 cycles: 145552548 heartbeat IPC: 2.52334 cumulative IPC: 2.3217 (Simulation time: 0 hr 22 min 14 sec) 
Heartbeat CPU 0 instructions: 370000001 cycles: 149526901 heartbeat IPC: 2.51613 cumulative IPC: 2.3323 (Simulation time: 0 hr 22 min 52 sec) 
Heartbeat CPU 0 instructions: 380000000 cycles: 153503511 heartbeat IPC: 2.5147 cumulative IPC: 2.34174 (Simulation time: 0 hr 23 min 31 sec) 
Heartbeat CPU 0 instructions: 390000003 cycles: 157496321 heartbeat IPC: 2.5045 cumulative IPC: 2.34978 (Simulation time: 0 hr 24 min 10 sec) 
Heartbeat CPU 0 instructions: 400000004 cycles: 161479495 heartbeat IPC: 2.51056 cumulative IPC: 2.35733 (Simulation time: 0 hr 24 min 49 sec) 
Heartbeat CPU 0 instructions: 410000004 cycles: 165641821 heartbeat IPC: 2.4025 cumulative IPC: 2.35944 (Simulation time: 0 hr 25 min 27 sec) 
Heartbeat CPU 0 instructions: 420000000 cycles: 169823810 heartbeat IPC: 2.39121 cumulative IPC: 2.36086 (Simulation time: 0 hr 26 min 4 sec) 
Heartbeat CPU 0 instructions: 430000001 cycles: 174038864 heartbeat IPC: 2.37245 cumulative IPC: 2.36137 (Simulation time: 0 hr 26 min 42 sec) 
Heartbeat CPU 0 instructions: 440000000 cycles: 178247039 heartbeat IPC: 2.37633 cumulative IPC: 2.36199 (Simulation time: 0 hr 27 min 20 sec) 
Heartbeat CPU 0 instructions: 450000004 cycles: 182472799 heartbeat IPC: 2.36644 cumulative IPC: 2.36216 (Simulation time: 0 hr 27 min 57 sec) 
Heartbeat CPU 0 instructions: 460000004 cycles: 186873300 heartbeat IPC: 2.27247 cumulative IPC: 2.35858 (Simulation time: 0 hr 28 min 35 sec) 
Heartbeat CPU 0 instructions: 470000004 cycles: 191274776 heartbeat IPC: 2.27197 cumulative IPC: 2.35526 (Simulation time: 0 hr 29 min 13 sec) 
Heartbeat CPU 0 instructions: 480000003 cycles: 195578482 heartbeat IPC: 2.32358 cumulative IPC: 2.35411 (Simulation time: 0 hr 29 min 51 sec) 
Heartbeat CPU 0 instructions: 490000004 cycles: 200338878 heartbeat IPC: 2.10067 cumulative IPC: 2.34436 (Simulation time: 0 hr 30 min 37 sec) 
Heartbeat CPU 0 instructions: 500000000 cycles: 205097322 heartbeat IPC: 2.10153 cumulative IPC: 2.33536 (Simulation time: 0 hr 31 min 22 sec) 
Heartbeat CPU 0 instructions: 510000002 cycles: 209863269 heartbeat IPC: 2.09822 cumulative IPC: 2.32688 (Simulation time: 0 hr 32 min 8 sec) 
Heartbeat CPU 0 instructions: 520000000 cycles: 213935067 heartbeat IPC: 2.45592 cumulative IPC: 2.33071 (Simulation time: 0 hr 32 min 47 sec) 
Heartbeat CPU 0 instructions: 530000002 cycles: 217963030 heartbeat IPC: 2.48265 cumulative IPC: 2.33504 (Simulation time: 0 hr 33 min 26 sec) 
Heartbeat CPU 0 instructions: 540000000 cycles: 221990412 heartbeat IPC: 2.483 cumulative IPC: 2.33914 (Simulation time: 0 hr 34 min 4 sec) 
Heartbeat CPU 0 instructions: 550000002 cycles: 226046999 heartbeat IPC: 2.46513 cumulative IPC: 2.34256 (Simulation time: 0 hr 34 min 43 sec) 
Heartbeat CPU 0 instructions: 560000001 cycles: 230101466 heartbeat IPC: 2.46642 cumulative IPC: 2.34583 (Simulation time: 0 hr 35 min 21 sec) 
Heartbeat CPU 0 instructions: 570000000 cycles: 234133361 heartbeat IPC: 2.48022 cumulative IPC: 2.34927 (Simulation time: 0 hr 36 min 0 sec) 
Heartbeat CPU 0 instructions: 580000002 cycles: 238200953 heartbeat IPC: 2.45846 cumulative IPC: 2.35202 (Simulation time: 0 hr 36 min 39 sec) 
Heartbeat CPU 0 instructions: 590000001 cycles: 242267598 heartbeat IPC: 2.45903 cumulative IPC: 2.35465 (Simulation time: 0 hr 37 min 17 sec) 
Heartbeat CPU 0 instructions: 600000001 cycles: 246348978 heartbeat IPC: 2.45015 cumulative IPC: 2.35694 (Simulation time: 0 hr 37 min 56 sec) 
Heartbeat CPU 0 instructions: 610000004 cycles: 250380736 heartbeat IPC: 2.48031 cumulative IPC: 2.35981 (Simulation time: 0 hr 38 min 35 sec) 
Heartbeat CPU 0 instructions: 620000000 cycles: 254437900 heartbeat IPC: 2.46477 cumulative IPC: 2.3622 (Simulation time: 0 hr 39 min 13 sec) 
Heartbeat CPU 0 instructions: 630000002 cycles: 258491696 heartbeat IPC: 2.46682 cumulative IPC: 2.36453 (Simulation time: 0 hr 39 min 52 sec) 
Heartbeat CPU 0 instructions: 640000001 cycles: 262557161 heartbeat IPC: 2.45974 cumulative IPC: 2.36661 (Simulation time: 0 hr 40 min 31 sec) 
Heartbeat CPU 0 instructions: 650000000 cycles: 266639196 heartbeat IPC: 2.44976 cumulative IPC: 2.3684 (Simulation time: 0 hr 41 min 10 sec) 
Heartbeat CPU 0 instructions: 660000003 cycles: 270689052 heartbeat IPC: 2.46922 cumulative IPC: 2.37051 (Simulation time: 0 hr 41 min 49 sec) 
Heartbeat CPU 0 instructions: 670000000 cycles: 276888008 heartbeat IPC: 1.61317 cumulative IPC: 2.34706 (Simulation time: 0 hr 42 min 35 sec) 
Heartbeat CPU 0 instructions: 680000003 cycles: 284647507 heartbeat IPC: 1.28874 cumulative IPC: 2.30758 (Simulation time: 0 hr 43 min 25 sec) 
Heartbeat CPU 0 instructions: 690000001 cycles: 292514452 heartbeat IPC: 1.27114 cumulative IPC: 2.26981 (Simulation time: 0 hr 44 min 17 sec) 
Heartbeat CPU 0 instructions: 700000000 cycles: 300513836 heartbeat IPC: 1.2501 cumulative IPC: 2.23338 (Simulation time: 0 hr 45 min 9 sec) 
Finished CPU 0 instructions: 500000002 cycles: 223876242 cumulative IPC: 2.23338 (Simulation time: 0 hr 45 min 9 sec) 

ChampSim completed all CPUs

Region of Interest Statistics

CPU 0 cumulative IPC: 2.23338 instructions: 500000002 cycles: 223876242
cpu0_L1I TOTAL     ACCESS:   13899701  HIT:   13899400  MISS:        301
cpu0_L1I LOAD      ACCESS:   13899701  HIT:   13899400  MISS:        301
cpu0_L1I RFO       ACCESS:          0  HIT:          0  MISS:          0
cpu0_L1I PREFETCH  ACCESS:          0  HIT:          0  MISS:          0
cpu0_L1I WRITEBACK ACCESS:          0  HIT:          0  MISS:          0
cpu0_L1I TRANSLATION ACCESS:          0  HIT:          0  MISS:          0
cpu0_L1I PREFETCH  REQUESTED:          0  ISSUED:          0  USEFUL:          0  USELESS:          0
cpu0_L1I AVERAGE MISS LATENCY: 139.096 cycles
cpu0_DTLB TOTAL     ACCESS:  119061617  HIT:  118966719  MISS:      94898
cpu0_DTLB LOAD      ACCESS:  107151461  HIT:  107068045  MISS:      83416
cpu0_DTLB RFO       ACCESS:   11910156  HIT:   11898674  MISS:      11482
cpu0_DTLB PREFETCH  ACCESS:          0  HIT:          0  MISS:          0
cpu0_DTLB WRITEBACK ACCESS:          0  HIT:          0  MISS:          0
cpu0_DTLB TRANSLATION ACCESS:          0  HIT:          0  MISS:          0
cpu0_DTLB PREFETCH  REQUESTED:          0  ISSUED:          0  USEFUL:          0  USELESS:          0
cpu0_DTLB AVERAGE MISS LATENCY: 23.5839 cycles
cpu0_ITLB TOTAL     ACCESS:    7413310  HIT:    7413303  MISS:          7
cpu0_ITLB LOAD      ACCESS:    7413310  HIT:    7413303  MISS:          7
cpu0_ITLB RFO       ACCESS:          0  HIT:          0  MISS:          0
cpu0_ITLB PREFETCH  ACCESS:          0  HIT:          0  MISS:          0
cpu0_ITLB WRITEBACK ACCESS:          0  HIT:          0  MISS:          0
cpu0_ITLB TRANSLATION ACCESS:          0  HIT:          0  MISS:          0
cpu0_ITLB PREFETCH  REQUESTED:          0  ISSUED:          0  USEFUL:          0  USELESS:          0
cpu0_ITLB AVERAGE MISS LATENCY: 221.714 cycles
cpu0_STLB TOTAL     ACCESS:      94905  HIT:      77604  MISS:      17301
cpu0_STLB LOAD      ACCESS:      83423  HIT:      68200  MISS:      15223
cpu0_STLB RFO       ACCESS:      11482  HIT:       9404  MISS:       2078
cpu0_STLB PREFETCH  ACCESS:          0  HIT:          0  MISS:          0
cpu0_STLB WRITEBACK ACCESS:          0  HIT:          0  MISS:          0
cpu0_STLB TRANSLATION ACCESS:          0  HIT:          0  MISS:          0
cpu0_STLB PREFETCH  REQUESTED:          0  ISSUED:          0  USEFUL:          0  USELESS:          0
cpu0_STLB AVERAGE MISS LATENCY: 80.0332 cycles
cpu0_L1D TOTAL     ACCESS:  144816556  HIT:  141462092  MISS:    3354464
cpu0_L1D LOAD      ACCESS:  127675477  HIT:  124912077  MISS:    2763400
cpu0_L1D RFO       ACCESS:   17123985  HIT:   16532969  MISS:     591016
cpu0_L1D PREFETCH  ACCESS:          0  HIT:          0  MISS:          0
cpu0_L1D WRITEBACK ACCESS:          0  HIT:          0  MISS:          0
cpu0_L1D TRANSLATION ACCESS:      17094  HIT:      17046  MISS:         48
cpu0_L1D PREFETCH  REQUESTED:          0  ISSUED:          0  USEFUL:          0  USELESS:          0
cpu0_L1D AVERAGE MISS LATENCY: 27.83 cycles
cpu0_L2C TOTAL     ACCESS:    4342240  HIT:    3704046  MISS:     638194
cpu0_L2C LOAD      ACCESS:    2763701  HIT:    2218884  MISS:     544817
cpu0_L2C RFO       ACCESS:     591016  HIT:     497689  MISS:      93327
cpu0_L2C PREFETCH  ACCESS:          0  HIT:          0  MISS:          0
cpu0_L2C WRITEBACK ACCESS:     987475  HIT:     987426  MISS:         49
cpu0_L2C TRANSLATION ACCESS:         48  HIT:         47  MISS:          1
cpu0_L2C PREFETCH  REQUESTED:          0  ISSUED:          0  USEFUL:          0  USELESS:          0
cpu0_L2C AVERAGE MISS LATENCY: 88.4373 cycles
LLC TOTAL     ACCESS:    1135490  HIT:     373702  MISS:     761788
LLC LOAD      ACCESS:     544817  HIT:     344393  MISS:     200424
LLC RFO       ACCESS:      93327  HIT:       6162  MISS:      87165
LLC PREFETCH  ACCESS:     353656  HIT:      23085  MISS:     330571
LLC WRITEBACK ACCESS:     143689  HIT:         62  MISS:     143627
LLC TRANSLATION ACCESS:          1  HIT:          0  MISS:          1
LLC PREFETCH  REQUESTED:     544817  ISSUED:     544817  USEFUL:     463169  USELESS:       9471
LLC AVERAGE MISS LATENCY: 111.026 cycles

DRAM Statistics
 CHANNEL 0
 RQ ROW_BUFFER_HIT:      94003  ROW_BUFFER_MISS:     524158
 DBUS AVG_CONGESTED_CYCLE:    3.89006
 WQ ROW_BUFFER_HIT:      33153  ROW_BUFFER_MISS:     103076  FULL:          0


CPU 0 Branch Prediction Accuracy: 98.2969% MPKI: 0.452426 Average ROB Occupancy at Mispredict: 307.737
Branch type MPKI
BRANCH_DIRECT_JUMP: 3.4e-05
BRANCH_INDIRECT: 0
BRANCH_CONDITIONAL: 0.452166
BRANCH_DIRECT_CALL: 0.000116
BRANCH_INDIRECT_CALL: 0
BRANCH_RETURN: 0.00011

