/home/caslab/workspace/sim/ChampSim/bin/champsim --warmup_instructions 200000000 --simulation_instructions 500000000/ /home/caslab/workspace/sim/traces/speccpu_by_champsim437.leslie3d-271B.champsimtrace.xz
start simulation for 437.leslie3d-271B.champsimtrace.xz

*** ChampSim Multicore Out-of-Order Simulator ***

Warmup Instructions: 200000000
Simulation Instructions: 500000000
Number of CPUs: 1
Off-chip DRAM Size: 4 GiB Channels: 1 Width: 64-bit Data Rate: 3200 MT/s

VirtualMemory physical capacity: 8588881920 num_ppages: 2096895
VirtualMemory page size: 4096 log2_page_size: 12

CPU 0 runs /home/caslab/workspace/sim/traces/speccpu_by_champsim/437.leslie3d-271B.champsimtrace.xz
CPU 0 Bimodal branch predictor
Basic BTB sets: 1024 ways: 8 indirect buffer size: 4096 RAS size: 64
LLC next line prefetcher
WARNING: The extended signature CACHE::prefetch_line(ip, base_addr, pf_addr, fill_this_level, prefetch_metadata) is deprecated.
WARNING: Use CACHE::prefetch_line(pf_addr, fill_this_level, prefetch_metadata) instead.
Heartbeat CPU 0 instructions: 10000000 cycles: 3583114 heartbeat IPC: 2.79087 cumulative IPC: 2.79087 (Simulation time: 0 hr 0 min 30 sec) 
Heartbeat CPU 0 instructions: 20000002 cycles: 7166110 heartbeat IPC: 2.79096 cumulative IPC: 2.79091 (Simulation time: 0 hr 1 min 0 sec) 
Heartbeat CPU 0 instructions: 30000001 cycles: 10749091 heartbeat IPC: 2.79097 cumulative IPC: 2.79093 (Simulation time: 0 hr 1 min 30 sec) 
Heartbeat CPU 0 instructions: 40000001 cycles: 14332086 heartbeat IPC: 2.79096 cumulative IPC: 2.79094 (Simulation time: 0 hr 2 min 0 sec) 
Heartbeat CPU 0 instructions: 50000000 cycles: 17915074 heartbeat IPC: 2.79097 cumulative IPC: 2.79095 (Simulation time: 0 hr 2 min 30 sec) 
Heartbeat CPU 0 instructions: 60000001 cycles: 21679946 heartbeat IPC: 2.65613 cumulative IPC: 2.76753 (Simulation time: 0 hr 3 min 1 sec) 
Heartbeat CPU 0 instructions: 70000004 cycles: 25673079 heartbeat IPC: 2.5043 cumulative IPC: 2.72659 (Simulation time: 0 hr 3 min 36 sec) 
Heartbeat CPU 0 instructions: 80000001 cycles: 29608592 heartbeat IPC: 2.54096 cumulative IPC: 2.70192 (Simulation time: 0 hr 4 min 10 sec) 
Heartbeat CPU 0 instructions: 90000003 cycles: 33960490 heartbeat IPC: 2.29785 cumulative IPC: 2.65014 (Simulation time: 0 hr 4 min 52 sec) 
Heartbeat CPU 0 instructions: 100000003 cycles: 38434832 heartbeat IPC: 2.23497 cumulative IPC: 2.60181 (Simulation time: 0 hr 5 min 36 sec) 
Heartbeat CPU 0 instructions: 110000001 cycles: 42909180 heartbeat IPC: 2.23496 cumulative IPC: 2.56355 (Simulation time: 0 hr 6 min 20 sec) 
Heartbeat CPU 0 instructions: 120000001 cycles: 47383524 heartbeat IPC: 2.23496 cumulative IPC: 2.53253 (Simulation time: 0 hr 7 min 4 sec) 
Heartbeat CPU 0 instructions: 130000004 cycles: 51190747 heartbeat IPC: 2.62659 cumulative IPC: 2.53952 (Simulation time: 0 hr 7 min 38 sec) 
Heartbeat CPU 0 instructions: 140000002 cycles: 54980278 heartbeat IPC: 2.63885 cumulative IPC: 2.54637 (Simulation time: 0 hr 8 min 12 sec) 
Heartbeat CPU 0 instructions: 150000002 cycles: 58767158 heartbeat IPC: 2.6407 cumulative IPC: 2.55245 (Simulation time: 0 hr 8 min 46 sec) 
Heartbeat CPU 0 instructions: 160000004 cycles: 62556084 heartbeat IPC: 2.63927 cumulative IPC: 2.5577 (Simulation time: 0 hr 9 min 20 sec) 
Heartbeat CPU 0 instructions: 170000000 cycles: 66345597 heartbeat IPC: 2.63886 cumulative IPC: 2.56234 (Simulation time: 0 hr 9 min 54 sec) 
Heartbeat CPU 0 instructions: 180000002 cycles: 70132461 heartbeat IPC: 2.64071 cumulative IPC: 2.56657 (Simulation time: 0 hr 10 min 28 sec) 
Heartbeat CPU 0 instructions: 190000000 cycles: 73921414 heartbeat IPC: 2.63925 cumulative IPC: 2.5703 (Simulation time: 0 hr 11 min 2 sec) 
Heartbeat CPU 0 instructions: 200000002 cycles: 77710917 heartbeat IPC: 2.63887 cumulative IPC: 2.57364 (Simulation time: 0 hr 11 min 36 sec) 

Warmup complete CPU 0 instructions: 200000002 cycles: 77710917 (Simulation time: 0 hr 11 min 36 sec) 

Heartbeat CPU 0 instructions: 210000002 cycles: 82150490 heartbeat IPC: 2.25247 cumulative IPC: 2.25247 (Simulation time: 0 hr 12 min 16 sec) 
Heartbeat CPU 0 instructions: 220000003 cycles: 86588825 heartbeat IPC: 2.2531 cumulative IPC: 2.25278 (Simulation time: 0 hr 12 min 55 sec) 
Heartbeat CPU 0 instructions: 230000001 cycles: 91027009 heartbeat IPC: 2.25317 cumulative IPC: 2.25291 (Simulation time: 0 hr 13 min 35 sec) 
Heartbeat CPU 0 instructions: 240000000 cycles: 95463986 heartbeat IPC: 2.25379 cumulative IPC: 2.25313 (Simulation time: 0 hr 14 min 14 sec) 
Heartbeat CPU 0 instructions: 250000003 cycles: 99904764 heartbeat IPC: 2.25186 cumulative IPC: 2.25288 (Simulation time: 0 hr 14 min 54 sec) 
Heartbeat CPU 0 instructions: 260000002 cycles: 104347565 heartbeat IPC: 2.25083 cumulative IPC: 2.25254 (Simulation time: 0 hr 15 min 33 sec) 
Heartbeat CPU 0 instructions: 270000003 cycles: 108736178 heartbeat IPC: 2.27862 cumulative IPC: 2.25623 (Simulation time: 0 hr 16 min 11 sec) 
Heartbeat CPU 0 instructions: 280000001 cycles: 113019528 heartbeat IPC: 2.33462 cumulative IPC: 2.26574 (Simulation time: 0 hr 16 min 49 sec) 
Heartbeat CPU 0 instructions: 290000001 cycles: 117152468 heartbeat IPC: 2.41958 cumulative IPC: 2.28186 (Simulation time: 0 hr 17 min 26 sec) 
Heartbeat CPU 0 instructions: 300000000 cycles: 121293469 heartbeat IPC: 2.41487 cumulative IPC: 2.2945 (Simulation time: 0 hr 18 min 3 sec) 
Heartbeat CPU 0 instructions: 310000000 cycles: 125435587 heartbeat IPC: 2.41422 cumulative IPC: 2.30489 (Simulation time: 0 hr 18 min 40 sec) 
Heartbeat CPU 0 instructions: 320000004 cycles: 129589238 heartbeat IPC: 2.40752 cumulative IPC: 2.3131 (Simulation time: 0 hr 19 min 17 sec) 
Heartbeat CPU 0 instructions: 330000004 cycles: 133748597 heartbeat IPC: 2.40422 cumulative IPC: 2.31987 (Simulation time: 0 hr 19 min 54 sec) 
Heartbeat CPU 0 instructions: 340000004 cycles: 137963929 heartbeat IPC: 2.37229 cumulative IPC: 2.32354 (Simulation time: 0 hr 20 min 32 sec) 
Heartbeat CPU 0 instructions: 350000001 cycles: 142075955 heartbeat IPC: 2.43189 cumulative IPC: 2.33046 (Simulation time: 0 hr 21 min 10 sec) 
Heartbeat CPU 0 instructions: 360000000 cycles: 146555163 heartbeat IPC: 2.23254 cumulative IPC: 2.32409 (Simulation time: 0 hr 21 min 52 sec) 
Heartbeat CPU 0 instructions: 370000000 cycles: 151332665 heartbeat IPC: 2.09314 cumulative IPC: 2.3091 (Simulation time: 0 hr 22 min 38 sec) 
Heartbeat CPU 0 instructions: 380000002 cycles: 156106116 heartbeat IPC: 2.09492 cumulative IPC: 2.29606 (Simulation time: 0 hr 23 min 24 sec) 
Heartbeat CPU 0 instructions: 390000000 cycles: 160879944 heartbeat IPC: 2.09475 cumulative IPC: 2.2845 (Simulation time: 0 hr 24 min 10 sec) 
Heartbeat CPU 0 instructions: 400000000 cycles: 165077996 heartbeat IPC: 2.38206 cumulative IPC: 2.28919 (Simulation time: 0 hr 24 min 50 sec) 
Heartbeat CPU 0 instructions: 410000000 cycles: 169074227 heartbeat IPC: 2.50236 cumulative IPC: 2.29852 (Simulation time: 0 hr 25 min 29 sec) 
Heartbeat CPU 0 instructions: 420000002 cycles: 173047085 heartbeat IPC: 2.51708 cumulative IPC: 2.30762 (Simulation time: 0 hr 26 min 8 sec) 
Heartbeat CPU 0 instructions: 430000001 cycles: 177024998 heartbeat IPC: 2.51388 cumulative IPC: 2.31589 (Simulation time: 0 hr 26 min 46 sec) 
Heartbeat CPU 0 instructions: 440000003 cycles: 181025664 heartbeat IPC: 2.49958 cumulative IPC: 2.323 (Simulation time: 0 hr 27 min 26 sec) 
Heartbeat CPU 0 instructions: 450000003 cycles: 185021370 heartbeat IPC: 2.50269 cumulative IPC: 2.32969 (Simulation time: 0 hr 28 min 5 sec) 
Heartbeat CPU 0 instructions: 460000000 cycles: 189016240 heartbeat IPC: 2.50321 cumulative IPC: 2.33592 (Simulation time: 0 hr 28 min 45 sec) 
Heartbeat CPU 0 instructions: 470000003 cycles: 193010606 heartbeat IPC: 2.50353 cumulative IPC: 2.34172 (Simulation time: 0 hr 29 min 24 sec) 
Heartbeat CPU 0 instructions: 480000000 cycles: 196999785 heartbeat IPC: 2.50678 cumulative IPC: 2.34724 (Simulation time: 0 hr 30 min 3 sec) 
Heartbeat CPU 0 instructions: 490000001 cycles: 200963638 heartbeat IPC: 2.5228 cumulative IPC: 2.35289 (Simulation time: 0 hr 30 min 41 sec) 
Heartbeat CPU 0 instructions: 500000000 cycles: 204956341 heartbeat IPC: 2.50457 cumulative IPC: 2.35765 (Simulation time: 0 hr 31 min 20 sec) 
Heartbeat CPU 0 instructions: 510000001 cycles: 208929490 heartbeat IPC: 2.5169 cumulative IPC: 2.36247 (Simulation time: 0 hr 31 min 59 sec) 
Heartbeat CPU 0 instructions: 520000000 cycles: 212891124 heartbeat IPC: 2.52421 cumulative IPC: 2.36721 (Simulation time: 0 hr 32 min 37 sec) 
Heartbeat CPU 0 instructions: 530000003 cycles: 216901754 heartbeat IPC: 2.49337 cumulative IPC: 2.37085 (Simulation time: 0 hr 33 min 16 sec) 
Heartbeat CPU 0 instructions: 540000004 cycles: 220925256 heartbeat IPC: 2.4854 cumulative IPC: 2.37406 (Simulation time: 0 hr 33 min 54 sec) 
Heartbeat CPU 0 instructions: 550000001 cycles: 225124830 heartbeat IPC: 2.38119 cumulative IPC: 2.37427 (Simulation time: 0 hr 34 min 32 sec) 
Heartbeat CPU 0 instructions: 560000004 cycles: 229319970 heartbeat IPC: 2.38371 cumulative IPC: 2.37453 (Simulation time: 0 hr 35 min 9 sec) 
Heartbeat CPU 0 instructions: 570000000 cycles: 233523107 heartbeat IPC: 2.37917 cumulative IPC: 2.37465 (Simulation time: 0 hr 35 min 46 sec) 
Heartbeat CPU 0 instructions: 580000004 cycles: 237733140 heartbeat IPC: 2.37528 cumulative IPC: 2.37467 (Simulation time: 0 hr 36 min 23 sec) 
Heartbeat CPU 0 instructions: 590000003 cycles: 241944647 heartbeat IPC: 2.37445 cumulative IPC: 2.37466 (Simulation time: 0 hr 37 min 0 sec) 
Heartbeat CPU 0 instructions: 600000001 cycles: 246648740 heartbeat IPC: 2.12581 cumulative IPC: 2.36773 (Simulation time: 0 hr 37 min 38 sec) 
Heartbeat CPU 0 instructions: 610000000 cycles: 250777820 heartbeat IPC: 2.42185 cumulative IPC: 2.36903 (Simulation time: 0 hr 38 min 16 sec) 
Heartbeat CPU 0 instructions: 620000004 cycles: 255356923 heartbeat IPC: 2.18383 cumulative IPC: 2.36425 (Simulation time: 0 hr 38 min 58 sec) 
Heartbeat CPU 0 instructions: 630000003 cycles: 260108534 heartbeat IPC: 2.10455 cumulative IPC: 2.35749 (Simulation time: 0 hr 39 min 44 sec) 
Heartbeat CPU 0 instructions: 640000001 cycles: 264869537 heartbeat IPC: 2.1004 cumulative IPC: 2.35095 (Simulation time: 0 hr 40 min 30 sec) 
Heartbeat CPU 0 instructions: 650000004 cycles: 269319463 heartbeat IPC: 2.24723 cumulative IPC: 2.34854 (Simulation time: 0 hr 41 min 13 sec) 
Heartbeat CPU 0 instructions: 660000002 cycles: 273394529 heartbeat IPC: 2.45395 cumulative IPC: 2.35073 (Simulation time: 0 hr 41 min 51 sec) 
Heartbeat CPU 0 instructions: 670000003 cycles: 277459357 heartbeat IPC: 2.46013 cumulative IPC: 2.35296 (Simulation time: 0 hr 42 min 30 sec) 
Heartbeat CPU 0 instructions: 680000002 cycles: 281497156 heartbeat IPC: 2.4766 cumulative IPC: 2.35541 (Simulation time: 0 hr 43 min 9 sec) 
Heartbeat CPU 0 instructions: 690000002 cycles: 285570576 heartbeat IPC: 2.45494 cumulative IPC: 2.35736 (Simulation time: 0 hr 43 min 48 sec) 
Heartbeat CPU 0 instructions: 700000002 cycles: 289628064 heartbeat IPC: 2.46458 cumulative IPC: 2.35941 (Simulation time: 0 hr 44 min 27 sec) 
Finished CPU 0 instructions: 500000000 cycles: 211917147 cumulative IPC: 2.35941 (Simulation time: 0 hr 44 min 27 sec) 

ChampSim completed all CPUs

Region of Interest Statistics

CPU 0 cumulative IPC: 2.35941 instructions: 500000000 cycles: 211917147
cpu0_L1I TOTAL     ACCESS:   12645563  HIT:   12645238  MISS:        325
cpu0_L1I LOAD      ACCESS:   12645563  HIT:   12645238  MISS:        325
cpu0_L1I RFO       ACCESS:          0  HIT:          0  MISS:          0
cpu0_L1I PREFETCH  ACCESS:          0  HIT:          0  MISS:          0
cpu0_L1I WRITEBACK ACCESS:          0  HIT:          0  MISS:          0
cpu0_L1I TRANSLATION ACCESS:          0  HIT:          0  MISS:          0
cpu0_L1I PREFETCH  REQUESTED:          0  ISSUED:          0  USEFUL:          0  USELESS:          0
cpu0_L1I AVERAGE MISS LATENCY: 126.852 cycles
cpu0_DTLB TOTAL     ACCESS:  115847675  HIT:  115777951  MISS:      69724
cpu0_DTLB LOAD      ACCESS:  104609642  HIT:  104553455  MISS:      56187
cpu0_DTLB RFO       ACCESS:   11238033  HIT:   11224496  MISS:      13537
cpu0_DTLB PREFETCH  ACCESS:          0  HIT:          0  MISS:          0
cpu0_DTLB WRITEBACK ACCESS:          0  HIT:          0  MISS:          0
cpu0_DTLB TRANSLATION ACCESS:          0  HIT:          0  MISS:          0
cpu0_DTLB PREFETCH  REQUESTED:          0  ISSUED:          0  USEFUL:          0  USELESS:          0
cpu0_DTLB AVERAGE MISS LATENCY: 18.368 cycles
cpu0_ITLB TOTAL     ACCESS:    6339103  HIT:    6339093  MISS:         10
cpu0_ITLB LOAD      ACCESS:    6339103  HIT:    6339093  MISS:         10
cpu0_ITLB RFO       ACCESS:          0  HIT:          0  MISS:          0
cpu0_ITLB PREFETCH  ACCESS:          0  HIT:          0  MISS:          0
cpu0_ITLB WRITEBACK ACCESS:          0  HIT:          0  MISS:          0
cpu0_ITLB TRANSLATION ACCESS:          0  HIT:          0  MISS:          0
cpu0_ITLB PREFETCH  REQUESTED:          0  ISSUED:          0  USEFUL:          0  USELESS:          0
cpu0_ITLB AVERAGE MISS LATENCY: 221.4 cycles
cpu0_STLB TOTAL     ACCESS:      69734  HIT:      53179  MISS:      16555
cpu0_STLB LOAD      ACCESS:      56197  HIT:      42724  MISS:      13473
cpu0_STLB RFO       ACCESS:      13537  HIT:      10455  MISS:       3082
cpu0_STLB PREFETCH  ACCESS:          0  HIT:          0  MISS:          0
cpu0_STLB WRITEBACK ACCESS:          0  HIT:          0  MISS:          0
cpu0_STLB TRANSLATION ACCESS:          0  HIT:          0  MISS:          0
cpu0_STLB PREFETCH  REQUESTED:          0  ISSUED:          0  USEFUL:          0  USELESS:          0
cpu0_STLB AVERAGE MISS LATENCY: 39.5497 cycles
cpu0_L1D TOTAL     ACCESS:  142992658  HIT:  139710473  MISS:    3282185
cpu0_L1D LOAD      ACCESS:  128006465  HIT:  125474723  MISS:    2531742
cpu0_L1D RFO       ACCESS:   14969972  HIT:   14219575  MISS:     750397
cpu0_L1D PREFETCH  ACCESS:          0  HIT:          0  MISS:          0
cpu0_L1D WRITEBACK ACCESS:          0  HIT:          0  MISS:          0
cpu0_L1D TRANSLATION ACCESS:      16221  HIT:      16175  MISS:         46
cpu0_L1D PREFETCH  REQUESTED:          0  ISSUED:          0  USEFUL:          0  USELESS:          0
cpu0_L1D AVERAGE MISS LATENCY: 21.2014 cycles
cpu0_L2C TOTAL     ACCESS:    4240753  HIT:    3781436  MISS:     459317
cpu0_L2C LOAD      ACCESS:    2532067  HIT:    2190168  MISS:     341899
cpu0_L2C RFO       ACCESS:     750397  HIT:     632991  MISS:     117406
cpu0_L2C PREFETCH  ACCESS:          0  HIT:          0  MISS:          0
cpu0_L2C WRITEBACK ACCESS:     958243  HIT:     958243  MISS:          0
cpu0_L2C TRANSLATION ACCESS:         46  HIT:         34  MISS:         12
cpu0_L2C PREFETCH  REQUESTED:          0  ISSUED:          0  USEFUL:          0  USELESS:          0
cpu0_L2C AVERAGE MISS LATENCY: 72.8897 cycles
LLC TOTAL     ACCESS:     810807  HIT:     263395  MISS:     547412
LLC LOAD      ACCESS:     341899  HIT:     228021  MISS:     113878
LLC RFO       ACCESS:     117406  HIT:      17731  MISS:      99675
LLC PREFETCH  ACCESS:     234098  HIT:      17642  MISS:     216456
LLC WRITEBACK ACCESS:     117392  HIT:          1  MISS:     117391
LLC TRANSLATION ACCESS:         12  HIT:          0  MISS:         12
LLC PREFETCH  REQUESTED:     341899  ISSUED:     341899  USEFUL:     316794  USELESS:       6098
LLC AVERAGE MISS LATENCY: 87.3124 cycles

DRAM Statistics
 CHANNEL 0
 RQ ROW_BUFFER_HIT:     143493  ROW_BUFFER_MISS:     286528
 DBUS AVG_CONGESTED_CYCLE:    3.94282
 WQ ROW_BUFFER_HIT:      27892  ROW_BUFFER_MISS:      79896  FULL:          0


CPU 0 Branch Prediction Accuracy: 98.3033% MPKI: 0.402036 Average ROB Occupancy at Mispredict: 313.881
Branch type MPKI
BRANCH_DIRECT_JUMP: 4.8e-05
BRANCH_INDIRECT: 0
BRANCH_CONDITIONAL: 0.401688
BRANCH_DIRECT_CALL: 0.000152
BRANCH_INDIRECT_CALL: 0
BRANCH_RETURN: 0.000148

