/home/caslab/workspace/sim/ChampSim/bin/champsim --warmup_instructions 200000000 --simulation_instructions 500000000/ /home/caslab/workspace/sim/traces/speccpu_by_champsim437.leslie3d-273B.champsimtrace.xz
start simulation for 437.leslie3d-273B.champsimtrace.xz

*** ChampSim Multicore Out-of-Order Simulator ***

Warmup Instructions: 200000000
Simulation Instructions: 500000000
Number of CPUs: 1
Off-chip DRAM Size: 4 GiB Channels: 1 Width: 64-bit Data Rate: 3200 MT/s

VirtualMemory physical capacity: 8588881920 num_ppages: 2096895
VirtualMemory page size: 4096 log2_page_size: 12

CPU 0 runs /home/caslab/workspace/sim/traces/speccpu_by_champsim/437.leslie3d-273B.champsimtrace.xz
CPU 0 Bimodal branch predictor
Basic BTB sets: 1024 ways: 8 indirect buffer size: 4096 RAS size: 64
LLC next line prefetcher
WARNING: The extended signature CACHE::prefetch_line(ip, base_addr, pf_addr, fill_this_level, prefetch_metadata) is deprecated.
WARNING: Use CACHE::prefetch_line(pf_addr, fill_this_level, prefetch_metadata) instead.
Heartbeat CPU 0 instructions: 10000001 cycles: 3789745 heartbeat IPC: 2.6387 cumulative IPC: 2.6387 (Simulation time: 0 hr 0 min 35 sec) 
Heartbeat CPU 0 instructions: 20000002 cycles: 7503007 heartbeat IPC: 2.69305 cumulative IPC: 2.6656 (Simulation time: 0 hr 1 min 8 sec) 
Heartbeat CPU 0 instructions: 30000003 cycles: 11419126 heartbeat IPC: 2.55355 cumulative IPC: 2.62717 (Simulation time: 0 hr 1 min 41 sec) 
Heartbeat CPU 0 instructions: 40000000 cycles: 15335912 heartbeat IPC: 2.55311 cumulative IPC: 2.60826 (Simulation time: 0 hr 2 min 14 sec) 
Heartbeat CPU 0 instructions: 50000000 cycles: 19252028 heartbeat IPC: 2.55355 cumulative IPC: 2.59713 (Simulation time: 0 hr 2 min 48 sec) 
Heartbeat CPU 0 instructions: 60000004 cycles: 23168818 heartbeat IPC: 2.55311 cumulative IPC: 2.58969 (Simulation time: 0 hr 3 min 22 sec) 
Heartbeat CPU 0 instructions: 70000001 cycles: 27084935 heartbeat IPC: 2.55355 cumulative IPC: 2.58446 (Simulation time: 0 hr 3 min 56 sec) 
Heartbeat CPU 0 instructions: 80000004 cycles: 31001726 heartbeat IPC: 2.55311 cumulative IPC: 2.5805 (Simulation time: 0 hr 4 min 30 sec) 
Heartbeat CPU 0 instructions: 90000001 cycles: 35031985 heartbeat IPC: 2.48123 cumulative IPC: 2.56908 (Simulation time: 0 hr 5 min 6 sec) 
Heartbeat CPU 0 instructions: 100000000 cycles: 38980201 heartbeat IPC: 2.53279 cumulative IPC: 2.5654 (Simulation time: 0 hr 5 min 40 sec) 
Heartbeat CPU 0 instructions: 110000000 cycles: 43137415 heartbeat IPC: 2.40546 cumulative IPC: 2.54999 (Simulation time: 0 hr 6 min 19 sec) 
Heartbeat CPU 0 instructions: 120000001 cycles: 47741010 heartbeat IPC: 2.17222 cumulative IPC: 2.51356 (Simulation time: 0 hr 7 min 6 sec) 
Heartbeat CPU 0 instructions: 130000002 cycles: 52344607 heartbeat IPC: 2.17221 cumulative IPC: 2.48354 (Simulation time: 0 hr 7 min 53 sec) 
Heartbeat CPU 0 instructions: 140000000 cycles: 56948207 heartbeat IPC: 2.17221 cumulative IPC: 2.45837 (Simulation time: 0 hr 8 min 41 sec) 
Heartbeat CPU 0 instructions: 150000000 cycles: 61192582 heartbeat IPC: 2.35606 cumulative IPC: 2.45128 (Simulation time: 0 hr 9 min 23 sec) 
Heartbeat CPU 0 instructions: 160000004 cycles: 65022834 heartbeat IPC: 2.6108 cumulative IPC: 2.46067 (Simulation time: 0 hr 9 min 58 sec) 
Heartbeat CPU 0 instructions: 170000000 cycles: 68852825 heartbeat IPC: 2.61097 cumulative IPC: 2.46903 (Simulation time: 0 hr 10 min 32 sec) 
Heartbeat CPU 0 instructions: 180000000 cycles: 72682824 heartbeat IPC: 2.61097 cumulative IPC: 2.47651 (Simulation time: 0 hr 11 min 6 sec) 
Heartbeat CPU 0 instructions: 190000004 cycles: 76513256 heartbeat IPC: 2.61067 cumulative IPC: 2.48323 (Simulation time: 0 hr 11 min 41 sec) 
Heartbeat CPU 0 instructions: 200000002 cycles: 80344030 heartbeat IPC: 2.61044 cumulative IPC: 2.4893 (Simulation time: 0 hr 12 min 15 sec) 

Warmup complete CPU 0 instructions: 200000002 cycles: 80344030 (Simulation time: 0 hr 12 min 15 sec) 

Heartbeat CPU 0 instructions: 210000004 cycles: 84759392 heartbeat IPC: 2.26482 cumulative IPC: 2.26482 (Simulation time: 0 hr 12 min 55 sec) 
Heartbeat CPU 0 instructions: 220000002 cycles: 89161634 heartbeat IPC: 2.27157 cumulative IPC: 2.26819 (Simulation time: 0 hr 13 min 36 sec) 
Heartbeat CPU 0 instructions: 230000000 cycles: 93613509 heartbeat IPC: 2.24624 cumulative IPC: 2.26083 (Simulation time: 0 hr 14 min 16 sec) 
Heartbeat CPU 0 instructions: 240000002 cycles: 98052572 heartbeat IPC: 2.25273 cumulative IPC: 2.2588 (Simulation time: 0 hr 14 min 57 sec) 
Heartbeat CPU 0 instructions: 250000004 cycles: 102456949 heartbeat IPC: 2.27047 cumulative IPC: 2.26112 (Simulation time: 0 hr 15 min 37 sec) 
Heartbeat CPU 0 instructions: 260000000 cycles: 106879127 heartbeat IPC: 2.26133 cumulative IPC: 2.26116 (Simulation time: 0 hr 16 min 17 sec) 
Heartbeat CPU 0 instructions: 270000000 cycles: 111289081 heartbeat IPC: 2.2676 cumulative IPC: 2.26207 (Simulation time: 0 hr 16 min 58 sec) 
Heartbeat CPU 0 instructions: 280000000 cycles: 115390331 heartbeat IPC: 2.43828 cumulative IPC: 2.28269 (Simulation time: 0 hr 17 min 37 sec) 
Heartbeat CPU 0 instructions: 290000002 cycles: 119366981 heartbeat IPC: 2.51468 cumulative IPC: 2.30633 (Simulation time: 0 hr 18 min 16 sec) 
Heartbeat CPU 0 instructions: 300000001 cycles: 123528830 heartbeat IPC: 2.40278 cumulative IPC: 2.31563 (Simulation time: 0 hr 18 min 53 sec) 
Heartbeat CPU 0 instructions: 310000000 cycles: 127662025 heartbeat IPC: 2.41944 cumulative IPC: 2.3247 (Simulation time: 0 hr 19 min 30 sec) 
Heartbeat CPU 0 instructions: 320000004 cycles: 131807172 heartbeat IPC: 2.41246 cumulative IPC: 2.33177 (Simulation time: 0 hr 20 min 7 sec) 
Heartbeat CPU 0 instructions: 330000000 cycles: 135952962 heartbeat IPC: 2.41208 cumulative IPC: 2.33775 (Simulation time: 0 hr 20 min 44 sec) 
Heartbeat CPU 0 instructions: 340000004 cycles: 140121257 heartbeat IPC: 2.39906 cumulative IPC: 2.34203 (Simulation time: 0 hr 21 min 22 sec) 
Heartbeat CPU 0 instructions: 350000001 cycles: 144689894 heartbeat IPC: 2.18884 cumulative IPC: 2.33115 (Simulation time: 0 hr 21 min 59 sec) 
Heartbeat CPU 0 instructions: 360000000 cycles: 148897651 heartbeat IPC: 2.37656 cumulative IPC: 2.33394 (Simulation time: 0 hr 22 min 37 sec) 
Heartbeat CPU 0 instructions: 370000000 cycles: 153362024 heartbeat IPC: 2.23996 cumulative IPC: 2.32819 (Simulation time: 0 hr 23 min 17 sec) 
Heartbeat CPU 0 instructions: 380000002 cycles: 158125568 heartbeat IPC: 2.09928 cumulative IPC: 2.31417 (Simulation time: 0 hr 24 min 3 sec) 
Heartbeat CPU 0 instructions: 390000003 cycles: 162898781 heartbeat IPC: 2.09503 cumulative IPC: 2.3015 (Simulation time: 0 hr 24 min 49 sec) 
Heartbeat CPU 0 instructions: 400000002 cycles: 167538128 heartbeat IPC: 2.15548 cumulative IPC: 2.29373 (Simulation time: 0 hr 25 min 33 sec) 
Heartbeat CPU 0 instructions: 410000001 cycles: 171614184 heartbeat IPC: 2.45335 cumulative IPC: 2.30086 (Simulation time: 0 hr 26 min 12 sec) 
Heartbeat CPU 0 instructions: 420000004 cycles: 175684887 heartbeat IPC: 2.45658 cumulative IPC: 2.30751 (Simulation time: 0 hr 26 min 50 sec) 
Heartbeat CPU 0 instructions: 430000004 cycles: 179758898 heartbeat IPC: 2.45458 cumulative IPC: 2.31354 (Simulation time: 0 hr 27 min 29 sec) 
Heartbeat CPU 0 instructions: 440000002 cycles: 183814013 heartbeat IPC: 2.46602 cumulative IPC: 2.31951 (Simulation time: 0 hr 28 min 8 sec) 
Heartbeat CPU 0 instructions: 450000001 cycles: 187873809 heartbeat IPC: 2.46318 cumulative IPC: 2.32494 (Simulation time: 0 hr 28 min 47 sec) 
Heartbeat CPU 0 instructions: 460000004 cycles: 191946184 heartbeat IPC: 2.45557 cumulative IPC: 2.3297 (Simulation time: 0 hr 29 min 25 sec) 
Heartbeat CPU 0 instructions: 470000002 cycles: 196034473 heartbeat IPC: 2.44601 cumulative IPC: 2.33381 (Simulation time: 0 hr 30 min 5 sec) 
Heartbeat CPU 0 instructions: 480000002 cycles: 200128639 heartbeat IPC: 2.4425 cumulative IPC: 2.33753 (Simulation time: 0 hr 30 min 44 sec) 
Heartbeat CPU 0 instructions: 490000003 cycles: 204210461 heartbeat IPC: 2.44989 cumulative IPC: 2.34123 (Simulation time: 0 hr 31 min 23 sec) 
Heartbeat CPU 0 instructions: 500000002 cycles: 208296612 heartbeat IPC: 2.44729 cumulative IPC: 2.34462 (Simulation time: 0 hr 32 min 2 sec) 
Heartbeat CPU 0 instructions: 510000003 cycles: 212394510 heartbeat IPC: 2.44028 cumulative IPC: 2.34759 (Simulation time: 0 hr 32 min 40 sec) 
Heartbeat CPU 0 instructions: 520000004 cycles: 216498549 heartbeat IPC: 2.43662 cumulative IPC: 2.35027 (Simulation time: 0 hr 33 min 19 sec) 
Heartbeat CPU 0 instructions: 530000001 cycles: 220600406 heartbeat IPC: 2.43792 cumulative IPC: 2.35283 (Simulation time: 0 hr 33 min 58 sec) 
Heartbeat CPU 0 instructions: 540000000 cycles: 224679678 heartbeat IPC: 2.45142 cumulative IPC: 2.35562 (Simulation time: 0 hr 34 min 36 sec) 
Heartbeat CPU 0 instructions: 550000000 cycles: 228777853 heartbeat IPC: 2.44011 cumulative IPC: 2.35795 (Simulation time: 0 hr 35 min 15 sec) 
Heartbeat CPU 0 instructions: 560000002 cycles: 235888344 heartbeat IPC: 1.40637 cumulative IPC: 2.31445 (Simulation time: 0 hr 36 min 4 sec) 
Heartbeat CPU 0 instructions: 570000004 cycles: 243718383 heartbeat IPC: 1.27713 cumulative IPC: 2.26474 (Simulation time: 0 hr 36 min 54 sec) 
Heartbeat CPU 0 instructions: 580000003 cycles: 251567044 heartbeat IPC: 1.2741 cumulative IPC: 2.21933 (Simulation time: 0 hr 37 min 45 sec) 
Heartbeat CPU 0 instructions: 590000000 cycles: 259631072 heartbeat IPC: 1.24007 cumulative IPC: 2.17528 (Simulation time: 0 hr 38 min 37 sec) 
Heartbeat CPU 0 instructions: 600000001 cycles: 267390242 heartbeat IPC: 1.2888 cumulative IPC: 2.13851 (Simulation time: 0 hr 39 min 29 sec) 
Heartbeat CPU 0 instructions: 610000003 cycles: 272397874 heartbeat IPC: 1.99695 cumulative IPC: 2.13482 (Simulation time: 0 hr 40 min 16 sec) 
Heartbeat CPU 0 instructions: 620000001 cycles: 276251866 heartbeat IPC: 2.59471 cumulative IPC: 2.14387 (Simulation time: 0 hr 40 min 54 sec) 
Heartbeat CPU 0 instructions: 630000004 cycles: 279940013 heartbeat IPC: 2.71139 cumulative IPC: 2.15435 (Simulation time: 0 hr 41 min 30 sec) 
Heartbeat CPU 0 instructions: 640000002 cycles: 283626807 heartbeat IPC: 2.71238 cumulative IPC: 2.16447 (Simulation time: 0 hr 42 min 6 sec) 
Heartbeat CPU 0 instructions: 650000003 cycles: 287318749 heartbeat IPC: 2.7086 cumulative IPC: 2.17418 (Simulation time: 0 hr 42 min 42 sec) 
Heartbeat CPU 0 instructions: 660000002 cycles: 291006882 heartbeat IPC: 2.7114 cumulative IPC: 2.18358 (Simulation time: 0 hr 43 min 18 sec) 
Heartbeat CPU 0 instructions: 670000002 cycles: 294694836 heartbeat IPC: 2.71153 cumulative IPC: 2.19267 (Simulation time: 0 hr 43 min 55 sec) 
Heartbeat CPU 0 instructions: 680000000 cycles: 298399867 heartbeat IPC: 2.69903 cumulative IPC: 2.20127 (Simulation time: 0 hr 44 min 31 sec) 
Heartbeat CPU 0 instructions: 690000000 cycles: 302474738 heartbeat IPC: 2.45407 cumulative IPC: 2.20591 (Simulation time: 0 hr 45 min 8 sec) 
Heartbeat CPU 0 instructions: 700000003 cycles: 306519166 heartbeat IPC: 2.47254 cumulative IPC: 2.21068 (Simulation time: 0 hr 45 min 46 sec) 
Finished CPU 0 instructions: 500000001 cycles: 226175136 cumulative IPC: 2.21068 (Simulation time: 0 hr 45 min 46 sec) 

ChampSim completed all CPUs

Region of Interest Statistics

CPU 0 cumulative IPC: 2.21068 instructions: 500000001 cycles: 226175136
cpu0_L1I TOTAL     ACCESS:   10585571  HIT:   10585180  MISS:        391
cpu0_L1I LOAD      ACCESS:   10585571  HIT:   10585180  MISS:        391
cpu0_L1I RFO       ACCESS:          0  HIT:          0  MISS:          0
cpu0_L1I PREFETCH  ACCESS:          0  HIT:          0  MISS:          0
cpu0_L1I WRITEBACK ACCESS:          0  HIT:          0  MISS:          0
cpu0_L1I TRANSLATION ACCESS:          0  HIT:          0  MISS:          0
cpu0_L1I PREFETCH  REQUESTED:          0  ISSUED:          0  USEFUL:          0  USELESS:          0
cpu0_L1I AVERAGE MISS LATENCY: 211.22 cycles
cpu0_DTLB TOTAL     ACCESS:  113751485  HIT:  113646614  MISS:     104871
cpu0_DTLB LOAD      ACCESS:  101582058  HIT:  101496580  MISS:      85478
cpu0_DTLB RFO       ACCESS:   12169427  HIT:   12150034  MISS:      19393
cpu0_DTLB PREFETCH  ACCESS:          0  HIT:          0  MISS:          0
cpu0_DTLB WRITEBACK ACCESS:          0  HIT:          0  MISS:          0
cpu0_DTLB TRANSLATION ACCESS:          0  HIT:          0  MISS:          0
cpu0_DTLB PREFETCH  REQUESTED:          0  ISSUED:          0  USEFUL:          0  USELESS:          0
cpu0_DTLB AVERAGE MISS LATENCY: 23.7424 cycles
cpu0_ITLB TOTAL     ACCESS:    6754537  HIT:    6754530  MISS:          7
cpu0_ITLB LOAD      ACCESS:    6754537  HIT:    6754530  MISS:          7
cpu0_ITLB RFO       ACCESS:          0  HIT:          0  MISS:          0
cpu0_ITLB PREFETCH  ACCESS:          0  HIT:          0  MISS:          0
cpu0_ITLB WRITEBACK ACCESS:          0  HIT:          0  MISS:          0
cpu0_ITLB TRANSLATION ACCESS:          0  HIT:          0  MISS:          0
cpu0_ITLB PREFETCH  REQUESTED:          0  ISSUED:          0  USEFUL:          0  USELESS:          0
cpu0_ITLB AVERAGE MISS LATENCY: 221.714 cycles
cpu0_STLB TOTAL     ACCESS:     104878  HIT:      84997  MISS:      19881
cpu0_STLB LOAD      ACCESS:      85485  HIT:      70517  MISS:      14968
cpu0_STLB RFO       ACCESS:      19393  HIT:      14480  MISS:       4913
cpu0_STLB PREFETCH  ACCESS:          0  HIT:          0  MISS:          0
cpu0_STLB WRITEBACK ACCESS:          0  HIT:          0  MISS:          0
cpu0_STLB TRANSLATION ACCESS:          0  HIT:          0  MISS:          0
cpu0_STLB PREFETCH  REQUESTED:          0  ISSUED:          0  USEFUL:          0  USELESS:          0
cpu0_STLB AVERAGE MISS LATENCY: 77.6759 cycles
cpu0_L1D TOTAL     ACCESS:  137540390  HIT:  134213870  MISS:    3326520
cpu0_L1D LOAD      ACCESS:  121113381  HIT:  118575678  MISS:    2537703
cpu0_L1D RFO       ACCESS:   16407409  HIT:   15618634  MISS:     788775
cpu0_L1D PREFETCH  ACCESS:          0  HIT:          0  MISS:          0
cpu0_L1D WRITEBACK ACCESS:          0  HIT:          0  MISS:          0
cpu0_L1D TRANSLATION ACCESS:      19600  HIT:      19558  MISS:         42
cpu0_L1D PREFETCH  REQUESTED:          0  ISSUED:          0  USEFUL:          0  USELESS:          0
cpu0_L1D AVERAGE MISS LATENCY: 49.6982 cycles
cpu0_L2C TOTAL     ACCESS:    4506535  HIT:    3758797  MISS:     747738
cpu0_L2C LOAD      ACCESS:    2538094  HIT:    1983140  MISS:     554954
cpu0_L2C RFO       ACCESS:     788772  HIT:     596059  MISS:     192713
cpu0_L2C PREFETCH  ACCESS:          0  HIT:          0  MISS:          0
cpu0_L2C WRITEBACK ACCESS:    1179627  HIT:    1179566  MISS:         61
cpu0_L2C TRANSLATION ACCESS:         42  HIT:         32  MISS:         10
cpu0_L2C PREFETCH  REQUESTED:          0  ISSUED:          0  USEFUL:          0  USELESS:          0
cpu0_L2C AVERAGE MISS LATENCY: 172.208 cycles
LLC TOTAL     ACCESS:    1266913  HIT:     313904  MISS:     953009
LLC LOAD      ACCESS:     554954  HIT:     283208  MISS:     271746
LLC RFO       ACCESS:     192713  HIT:      16369  MISS:     176344
LLC PREFETCH  ACCESS:     296492  HIT:      14326  MISS:     282166
LLC WRITEBACK ACCESS:     222744  HIT:          1  MISS:     222743
LLC TRANSLATION ACCESS:         10  HIT:          0  MISS:         10
LLC PREFETCH  REQUESTED:     554954  ISSUED:     554954  USEFUL:     466219  USELESS:      10753
LLC AVERAGE MISS LATENCY: 158.242 cycles

DRAM Statistics
 CHANNEL 0
 RQ ROW_BUFFER_HIT:     148412  ROW_BUFFER_MISS:     581845
 DBUS AVG_CONGESTED_CYCLE:    3.95875
 WQ ROW_BUFFER_HIT:      43626  ROW_BUFFER_MISS:     167651  FULL:          0


CPU 0 Branch Prediction Accuracy: 98.2791% MPKI: 0.46416 Average ROB Occupancy at Mispredict: 308.484
Branch type MPKI
BRANCH_DIRECT_JUMP: 6.8e-05
BRANCH_INDIRECT: 0
BRANCH_CONDITIONAL: 0.463782
BRANCH_DIRECT_CALL: 0.000162
BRANCH_INDIRECT_CALL: 0
BRANCH_RETURN: 0.000148

