/home/caslab/workspace/sim/ChampSim/bin/champsim --warmup_instructions 200000000 --simulation_instructions 500000000/ /home/caslab/workspace/sim/traces/speccpu_by_champsim444.namd-33B.champsimtrace.xz
start simulation for 444.namd-33B.champsimtrace.xz

*** ChampSim Multicore Out-of-Order Simulator ***

Warmup Instructions: 200000000
Simulation Instructions: 500000000
Number of CPUs: 1
Off-chip DRAM Size: 4 GiB Channels: 1 Width: 64-bit Data Rate: 3200 MT/s

VirtualMemory physical capacity: 8588881920 num_ppages: 2096895
VirtualMemory page size: 4096 log2_page_size: 12

CPU 0 runs /home/caslab/workspace/sim/traces/speccpu_by_champsim/444.namd-33B.champsimtrace.xz
CPU 0 Bimodal branch predictor
Basic BTB sets: 1024 ways: 8 indirect buffer size: 4096 RAS size: 64
LLC next line prefetcher
WARNING: The extended signature CACHE::prefetch_line(ip, base_addr, pf_addr, fill_this_level, prefetch_metadata) is deprecated.
WARNING: Use CACHE::prefetch_line(pf_addr, fill_this_level, prefetch_metadata) instead.
Heartbeat CPU 0 instructions: 10000002 cycles: 2854726 heartbeat IPC: 3.50296 cumulative IPC: 3.50296 (Simulation time: 0 hr 0 min 24 sec) 
Heartbeat CPU 0 instructions: 20000004 cycles: 5722356 heartbeat IPC: 3.4872 cumulative IPC: 3.49506 (Simulation time: 0 hr 0 min 48 sec) 
Heartbeat CPU 0 instructions: 30000000 cycles: 8532515 heartbeat IPC: 3.55852 cumulative IPC: 3.51596 (Simulation time: 0 hr 1 min 12 sec) 
Heartbeat CPU 0 instructions: 40000000 cycles: 11389444 heartbeat IPC: 3.50026 cumulative IPC: 3.51202 (Simulation time: 0 hr 1 min 36 sec) 
Heartbeat CPU 0 instructions: 50000000 cycles: 14199333 heartbeat IPC: 3.55886 cumulative IPC: 3.52129 (Simulation time: 0 hr 1 min 59 sec) 
Heartbeat CPU 0 instructions: 60000000 cycles: 16987385 heartbeat IPC: 3.58673 cumulative IPC: 3.53203 (Simulation time: 0 hr 2 min 23 sec) 
Heartbeat CPU 0 instructions: 70000003 cycles: 19906755 heartbeat IPC: 3.4254 cumulative IPC: 3.51639 (Simulation time: 0 hr 2 min 48 sec) 
Heartbeat CPU 0 instructions: 80000000 cycles: 22687119 heartbeat IPC: 3.59665 cumulative IPC: 3.52623 (Simulation time: 0 hr 3 min 11 sec) 
Heartbeat CPU 0 instructions: 90000002 cycles: 25586325 heartbeat IPC: 3.44922 cumulative IPC: 3.5175 (Simulation time: 0 hr 3 min 35 sec) 
Heartbeat CPU 0 instructions: 100000000 cycles: 28381836 heartbeat IPC: 3.57716 cumulative IPC: 3.52338 (Simulation time: 0 hr 3 min 59 sec) 
Heartbeat CPU 0 instructions: 110000001 cycles: 31274325 heartbeat IPC: 3.45723 cumulative IPC: 3.51726 (Simulation time: 0 hr 4 min 24 sec) 
Heartbeat CPU 0 instructions: 120000001 cycles: 34073831 heartbeat IPC: 3.57206 cumulative IPC: 3.52176 (Simulation time: 0 hr 4 min 47 sec) 
Heartbeat CPU 0 instructions: 130000003 cycles: 36969437 heartbeat IPC: 3.45351 cumulative IPC: 3.51642 (Simulation time: 0 hr 5 min 12 sec) 
Heartbeat CPU 0 instructions: 140000001 cycles: 39702347 heartbeat IPC: 3.6591 cumulative IPC: 3.52624 (Simulation time: 0 hr 5 min 35 sec) 
Heartbeat CPU 0 instructions: 150000003 cycles: 42508080 heartbeat IPC: 3.56413 cumulative IPC: 3.52874 (Simulation time: 0 hr 5 min 59 sec) 
Heartbeat CPU 0 instructions: 160000001 cycles: 45283665 heartbeat IPC: 3.60284 cumulative IPC: 3.53328 (Simulation time: 0 hr 6 min 22 sec) 
Heartbeat CPU 0 instructions: 170000004 cycles: 48167622 heartbeat IPC: 3.46746 cumulative IPC: 3.52934 (Simulation time: 0 hr 6 min 46 sec) 
Heartbeat CPU 0 instructions: 180000000 cycles: 50988160 heartbeat IPC: 3.54542 cumulative IPC: 3.53023 (Simulation time: 0 hr 7 min 10 sec) 
Heartbeat CPU 0 instructions: 190000000 cycles: 53783820 heartbeat IPC: 3.57697 cumulative IPC: 3.53266 (Simulation time: 0 hr 7 min 34 sec) 
Heartbeat CPU 0 instructions: 200000003 cycles: 56582271 heartbeat IPC: 3.57341 cumulative IPC: 3.53468 (Simulation time: 0 hr 7 min 57 sec) 

Warmup complete CPU 0 instructions: 200000003 cycles: 56582271 (Simulation time: 0 hr 7 min 57 sec) 

Heartbeat CPU 0 instructions: 210000004 cycles: 60412093 heartbeat IPC: 2.61109 cumulative IPC: 2.61109 (Simulation time: 0 hr 8 min 21 sec) 
Heartbeat CPU 0 instructions: 220000004 cycles: 64097932 heartbeat IPC: 2.71309 cumulative IPC: 2.66111 (Simulation time: 0 hr 8 min 44 sec) 
Heartbeat CPU 0 instructions: 230000002 cycles: 67891725 heartbeat IPC: 2.63588 cumulative IPC: 2.65265 (Simulation time: 0 hr 9 min 8 sec) 
Heartbeat CPU 0 instructions: 240000004 cycles: 71570222 heartbeat IPC: 2.7185 cumulative IPC: 2.66881 (Simulation time: 0 hr 9 min 31 sec) 
Heartbeat CPU 0 instructions: 250000002 cycles: 75344837 heartbeat IPC: 2.64928 cumulative IPC: 2.66488 (Simulation time: 0 hr 9 min 56 sec) 
Heartbeat CPU 0 instructions: 260000004 cycles: 79214474 heartbeat IPC: 2.58422 cumulative IPC: 2.65109 (Simulation time: 0 hr 10 min 20 sec) 
Heartbeat CPU 0 instructions: 270000002 cycles: 82844300 heartbeat IPC: 2.75495 cumulative IPC: 2.66545 (Simulation time: 0 hr 10 min 43 sec) 
Heartbeat CPU 0 instructions: 280000001 cycles: 86695613 heartbeat IPC: 2.59652 cumulative IPC: 2.65663 (Simulation time: 0 hr 11 min 7 sec) 
Heartbeat CPU 0 instructions: 290000000 cycles: 90395026 heartbeat IPC: 2.70313 cumulative IPC: 2.66172 (Simulation time: 0 hr 11 min 31 sec) 
Heartbeat CPU 0 instructions: 300000001 cycles: 94211116 heartbeat IPC: 2.62048 cumulative IPC: 2.65754 (Simulation time: 0 hr 11 min 55 sec) 
Heartbeat CPU 0 instructions: 310000003 cycles: 98057773 heartbeat IPC: 2.59966 cumulative IPC: 2.65217 (Simulation time: 0 hr 12 min 19 sec) 
Heartbeat CPU 0 instructions: 320000000 cycles: 101717424 heartbeat IPC: 2.7325 cumulative IPC: 2.65868 (Simulation time: 0 hr 12 min 42 sec) 
Heartbeat CPU 0 instructions: 330000004 cycles: 105550065 heartbeat IPC: 2.60917 cumulative IPC: 2.65481 (Simulation time: 0 hr 13 min 6 sec) 
Heartbeat CPU 0 instructions: 340000002 cycles: 109276034 heartbeat IPC: 2.68387 cumulative IPC: 2.65686 (Simulation time: 0 hr 13 min 30 sec) 
Heartbeat CPU 0 instructions: 350000002 cycles: 113239321 heartbeat IPC: 2.52316 cumulative IPC: 2.64751 (Simulation time: 0 hr 13 min 54 sec) 
Heartbeat CPU 0 instructions: 360000000 cycles: 117117635 heartbeat IPC: 2.57844 cumulative IPC: 2.64308 (Simulation time: 0 hr 14 min 18 sec) 
Heartbeat CPU 0 instructions: 370000002 cycles: 120813130 heartbeat IPC: 2.706 cumulative IPC: 2.6467 (Simulation time: 0 hr 14 min 41 sec) 
Heartbeat CPU 0 instructions: 380000000 cycles: 124550382 heartbeat IPC: 2.67576 cumulative IPC: 2.6483 (Simulation time: 0 hr 15 min 4 sec) 
Heartbeat CPU 0 instructions: 390000004 cycles: 128272377 heartbeat IPC: 2.68673 cumulative IPC: 2.6503 (Simulation time: 0 hr 15 min 28 sec) 
Heartbeat CPU 0 instructions: 400000004 cycles: 132098971 heartbeat IPC: 2.61329 cumulative IPC: 2.64842 (Simulation time: 0 hr 15 min 51 sec) 
Heartbeat CPU 0 instructions: 410000004 cycles: 135966013 heartbeat IPC: 2.58596 cumulative IPC: 2.64538 (Simulation time: 0 hr 16 min 15 sec) 
Heartbeat CPU 0 instructions: 420000004 cycles: 139766014 heartbeat IPC: 2.63158 cumulative IPC: 2.64475 (Simulation time: 0 hr 16 min 38 sec) 
Heartbeat CPU 0 instructions: 430000000 cycles: 143576046 heartbeat IPC: 2.62465 cumulative IPC: 2.64387 (Simulation time: 0 hr 17 min 2 sec) 
Heartbeat CPU 0 instructions: 440000002 cycles: 147587171 heartbeat IPC: 2.49307 cumulative IPC: 2.63722 (Simulation time: 0 hr 17 min 27 sec) 
Heartbeat CPU 0 instructions: 450000001 cycles: 151625733 heartbeat IPC: 2.47613 cumulative IPC: 2.63038 (Simulation time: 0 hr 17 min 51 sec) 
Heartbeat CPU 0 instructions: 460000001 cycles: 155362513 heartbeat IPC: 2.6761 cumulative IPC: 2.63211 (Simulation time: 0 hr 18 min 14 sec) 
Heartbeat CPU 0 instructions: 470000004 cycles: 159298996 heartbeat IPC: 2.54034 cumulative IPC: 2.62859 (Simulation time: 0 hr 18 min 39 sec) 
Heartbeat CPU 0 instructions: 480000002 cycles: 163206689 heartbeat IPC: 2.55905 cumulative IPC: 2.62604 (Simulation time: 0 hr 19 min 2 sec) 
Heartbeat CPU 0 instructions: 490000000 cycles: 166917321 heartbeat IPC: 2.69496 cumulative IPC: 2.62836 (Simulation time: 0 hr 19 min 26 sec) 
Heartbeat CPU 0 instructions: 500000003 cycles: 170840675 heartbeat IPC: 2.54884 cumulative IPC: 2.62563 (Simulation time: 0 hr 19 min 50 sec) 
Heartbeat CPU 0 instructions: 510000001 cycles: 174676694 heartbeat IPC: 2.60687 cumulative IPC: 2.62502 (Simulation time: 0 hr 20 min 14 sec) 
Heartbeat CPU 0 instructions: 520000002 cycles: 178457264 heartbeat IPC: 2.6451 cumulative IPC: 2.62564 (Simulation time: 0 hr 20 min 37 sec) 
Heartbeat CPU 0 instructions: 530000001 cycles: 182275113 heartbeat IPC: 2.61928 cumulative IPC: 2.62545 (Simulation time: 0 hr 21 min 1 sec) 
Heartbeat CPU 0 instructions: 540000000 cycles: 185994971 heartbeat IPC: 2.68827 cumulative IPC: 2.62725 (Simulation time: 0 hr 21 min 24 sec) 
Heartbeat CPU 0 instructions: 550000001 cycles: 189817418 heartbeat IPC: 2.61613 cumulative IPC: 2.62693 (Simulation time: 0 hr 21 min 48 sec) 
Heartbeat CPU 0 instructions: 560000004 cycles: 193557275 heartbeat IPC: 2.6739 cumulative IPC: 2.62822 (Simulation time: 0 hr 22 min 12 sec) 
Heartbeat CPU 0 instructions: 570000001 cycles: 197322261 heartbeat IPC: 2.65605 cumulative IPC: 2.62896 (Simulation time: 0 hr 22 min 35 sec) 
Heartbeat CPU 0 instructions: 580000000 cycles: 201277635 heartbeat IPC: 2.52821 cumulative IPC: 2.62621 (Simulation time: 0 hr 22 min 59 sec) 
Heartbeat CPU 0 instructions: 590000004 cycles: 205036001 heartbeat IPC: 2.66073 cumulative IPC: 2.62708 (Simulation time: 0 hr 23 min 23 sec) 
Heartbeat CPU 0 instructions: 600000002 cycles: 208870407 heartbeat IPC: 2.60797 cumulative IPC: 2.6266 (Simulation time: 0 hr 23 min 47 sec) 
Heartbeat CPU 0 instructions: 610000001 cycles: 212541912 heartbeat IPC: 2.72368 cumulative IPC: 2.62889 (Simulation time: 0 hr 24 min 11 sec) 
Heartbeat CPU 0 instructions: 620000001 cycles: 216455034 heartbeat IPC: 2.5555 cumulative IPC: 2.62709 (Simulation time: 0 hr 24 min 36 sec) 
Heartbeat CPU 0 instructions: 630000003 cycles: 220314052 heartbeat IPC: 2.59133 cumulative IPC: 2.62625 (Simulation time: 0 hr 24 min 59 sec) 
Heartbeat CPU 0 instructions: 640000000 cycles: 224311405 heartbeat IPC: 2.50165 cumulative IPC: 2.62328 (Simulation time: 0 hr 25 min 23 sec) 
Heartbeat CPU 0 instructions: 650000000 cycles: 228353519 heartbeat IPC: 2.47395 cumulative IPC: 2.61976 (Simulation time: 0 hr 25 min 47 sec) 
Heartbeat CPU 0 instructions: 660000004 cycles: 232366267 heartbeat IPC: 2.49206 cumulative IPC: 2.61685 (Simulation time: 0 hr 26 min 11 sec) 
Heartbeat CPU 0 instructions: 670000000 cycles: 236372827 heartbeat IPC: 2.49591 cumulative IPC: 2.61415 (Simulation time: 0 hr 26 min 35 sec) 
Heartbeat CPU 0 instructions: 680000001 cycles: 240372383 heartbeat IPC: 2.50028 cumulative IPC: 2.61167 (Simulation time: 0 hr 27 min 0 sec) 
Heartbeat CPU 0 instructions: 690000000 cycles: 244414325 heartbeat IPC: 2.47406 cumulative IPC: 2.60871 (Simulation time: 0 hr 27 min 24 sec) 
Heartbeat CPU 0 instructions: 700000001 cycles: 248364746 heartbeat IPC: 2.53138 cumulative IPC: 2.60712 (Simulation time: 0 hr 27 min 48 sec) 
Finished CPU 0 instructions: 500000003 cycles: 191782476 cumulative IPC: 2.60712 (Simulation time: 0 hr 27 min 48 sec) 

ChampSim completed all CPUs

Region of Interest Statistics

CPU 0 cumulative IPC: 2.60712 instructions: 500000003 cycles: 191782476
cpu0_L1I TOTAL     ACCESS:       6941  HIT:       6941  MISS:          0
cpu0_L1I LOAD      ACCESS:       6941  HIT:       6941  MISS:          0
cpu0_L1I RFO       ACCESS:          0  HIT:          0  MISS:          0
cpu0_L1I PREFETCH  ACCESS:          0  HIT:          0  MISS:          0
cpu0_L1I WRITEBACK ACCESS:          0  HIT:          0  MISS:          0
cpu0_L1I TRANSLATION ACCESS:          0  HIT:          0  MISS:          0
cpu0_L1I PREFETCH  REQUESTED:          0  ISSUED:          0  USEFUL:          0  USELESS:          0
cpu0_L1I AVERAGE MISS LATENCY: -nan cycles
cpu0_DTLB TOTAL     ACCESS:   86700759  HIT:   86699078  MISS:       1681
cpu0_DTLB LOAD      ACCESS:   73280134  HIT:   73278461  MISS:       1673
cpu0_DTLB RFO       ACCESS:   13420625  HIT:   13420617  MISS:          8
cpu0_DTLB PREFETCH  ACCESS:          0  HIT:          0  MISS:          0
cpu0_DTLB WRITEBACK ACCESS:          0  HIT:          0  MISS:          0
cpu0_DTLB TRANSLATION ACCESS:          0  HIT:          0  MISS:          0
cpu0_DTLB PREFETCH  REQUESTED:          0  ISSUED:          0  USEFUL:          0  USELESS:          0
cpu0_DTLB AVERAGE MISS LATENCY: 54.2344 cycles
cpu0_ITLB TOTAL     ACCESS:   16742794  HIT:   16742794  MISS:          0
cpu0_ITLB LOAD      ACCESS:   16742794  HIT:   16742794  MISS:          0
cpu0_ITLB RFO       ACCESS:          0  HIT:          0  MISS:          0
cpu0_ITLB PREFETCH  ACCESS:          0  HIT:          0  MISS:          0
cpu0_ITLB WRITEBACK ACCESS:          0  HIT:          0  MISS:          0
cpu0_ITLB TRANSLATION ACCESS:          0  HIT:          0  MISS:          0
cpu0_ITLB PREFETCH  REQUESTED:          0  ISSUED:          0  USEFUL:          0  USELESS:          0
cpu0_ITLB AVERAGE MISS LATENCY: -nan cycles
cpu0_STLB TOTAL     ACCESS:       1681  HIT:       1314  MISS:        367
cpu0_STLB LOAD      ACCESS:       1673  HIT:       1306  MISS:        367
cpu0_STLB RFO       ACCESS:          8  HIT:          8  MISS:          0
cpu0_STLB PREFETCH  ACCESS:          0  HIT:          0  MISS:          0
cpu0_STLB WRITEBACK ACCESS:          0  HIT:          0  MISS:          0
cpu0_STLB TRANSLATION ACCESS:          0  HIT:          0  MISS:          0
cpu0_STLB PREFETCH  REQUESTED:          0  ISSUED:          0  USEFUL:          0  USELESS:          0
cpu0_STLB AVERAGE MISS LATENCY: 207.183 cycles
cpu0_L1D TOTAL     ACCESS:   92381048  HIT:   92363623  MISS:      17425
cpu0_L1D LOAD      ACCESS:   70757960  HIT:   70740536  MISS:      17424
cpu0_L1D RFO       ACCESS:   21622721  HIT:   21622720  MISS:          1
cpu0_L1D PREFETCH  ACCESS:          0  HIT:          0  MISS:          0
cpu0_L1D WRITEBACK ACCESS:          0  HIT:          0  MISS:          0
cpu0_L1D TRANSLATION ACCESS:        367  HIT:        367  MISS:          0
cpu0_L1D PREFETCH  REQUESTED:          0  ISSUED:          0  USEFUL:          0  USELESS:          0
cpu0_L1D AVERAGE MISS LATENCY: 71.4008 cycles
cpu0_L2C TOTAL     ACCESS:      17656  HIT:        233  MISS:      17423
cpu0_L2C LOAD      ACCESS:      17424  HIT:          2  MISS:      17422
cpu0_L2C RFO       ACCESS:          1  HIT:          0  MISS:          1
cpu0_L2C PREFETCH  ACCESS:          0  HIT:          0  MISS:          0
cpu0_L2C WRITEBACK ACCESS:        231  HIT:        231  MISS:          0
cpu0_L2C TRANSLATION ACCESS:          0  HIT:          0  MISS:          0
cpu0_L2C PREFETCH  REQUESTED:          0  ISSUED:          0  USEFUL:          0  USELESS:          0
cpu0_L2C AVERAGE MISS LATENCY: 60.4019 cycles
LLC TOTAL     ACCESS:      27762  HIT:       9451  MISS:      18311
LLC LOAD      ACCESS:      17422  HIT:       7377  MISS:      10045
LLC RFO       ACCESS:          1  HIT:          0  MISS:          1
LLC PREFETCH  ACCESS:      10339  HIT:       2074  MISS:       8265
LLC WRITEBACK ACCESS:          0  HIT:          0  MISS:          0
LLC TRANSLATION ACCESS:          0  HIT:          0  MISS:          0
LLC PREFETCH  REQUESTED:      17422  ISSUED:      17422  USEFUL:      14028  USELESS:        665
LLC AVERAGE MISS LATENCY: 79.4301 cycles

DRAM Statistics
 CHANNEL 0
 RQ ROW_BUFFER_HIT:      10241  ROW_BUFFER_MISS:       8070
 DBUS AVG_CONGESTED_CYCLE:    3.42448
 WQ ROW_BUFFER_HIT:          0  ROW_BUFFER_MISS:          0  FULL:          0


CPU 0 Branch Prediction Accuracy: 95.4621% MPKI: 2.45365 Average ROB Occupancy at Mispredict: 92.167
Branch type MPKI
BRANCH_DIRECT_JUMP: 0
BRANCH_INDIRECT: 0
BRANCH_CONDITIONAL: 2.45365
BRANCH_DIRECT_CALL: 0
BRANCH_INDIRECT_CALL: 0
BRANCH_RETURN: 0

