/home/caslab/workspace/sim/ChampSim/bin/champsim --warmup_instructions 200000000 --simulation_instructions 500000000/ /home/caslab/workspace/sim/traces/speccpu_by_champsim444.namd-120B.champsimtrace.xz
start simulation for 444.namd-120B.champsimtrace.xz

*** ChampSim Multicore Out-of-Order Simulator ***

Warmup Instructions: 200000000
Simulation Instructions: 500000000
Number of CPUs: 1
Off-chip DRAM Size: 4 GiB Channels: 1 Width: 64-bit Data Rate: 3200 MT/s

VirtualMemory physical capacity: 8588881920 num_ppages: 2096895
VirtualMemory page size: 4096 log2_page_size: 12

CPU 0 runs /home/caslab/workspace/sim/traces/speccpu_by_champsim/444.namd-120B.champsimtrace.xz
CPU 0 Bimodal branch predictor
Basic BTB sets: 1024 ways: 8 indirect buffer size: 4096 RAS size: 64
LLC next line prefetcher
WARNING: The extended signature CACHE::prefetch_line(ip, base_addr, pf_addr, fill_this_level, prefetch_metadata) is deprecated.
WARNING: Use CACHE::prefetch_line(pf_addr, fill_this_level, prefetch_metadata) instead.
Heartbeat CPU 0 instructions: 10000004 cycles: 2895688 heartbeat IPC: 3.45341 cumulative IPC: 3.45341 (Simulation time: 0 hr 0 min 26 sec) 
Heartbeat CPU 0 instructions: 20000003 cycles: 5876703 heartbeat IPC: 3.35456 cumulative IPC: 3.40327 (Simulation time: 0 hr 0 min 52 sec) 
Heartbeat CPU 0 instructions: 30000000 cycles: 8785786 heartbeat IPC: 3.43751 cumulative IPC: 3.41461 (Simulation time: 0 hr 1 min 18 sec) 
Heartbeat CPU 0 instructions: 40000002 cycles: 11734333 heartbeat IPC: 3.3915 cumulative IPC: 3.4088 (Simulation time: 0 hr 1 min 44 sec) 
Heartbeat CPU 0 instructions: 50000002 cycles: 14598374 heartbeat IPC: 3.49157 cumulative IPC: 3.42504 (Simulation time: 0 hr 2 min 10 sec) 
Heartbeat CPU 0 instructions: 60000001 cycles: 17505995 heartbeat IPC: 3.43924 cumulative IPC: 3.4274 (Simulation time: 0 hr 2 min 35 sec) 
Heartbeat CPU 0 instructions: 70000002 cycles: 20410088 heartbeat IPC: 3.44342 cumulative IPC: 3.42968 (Simulation time: 0 hr 3 min 1 sec) 
Heartbeat CPU 0 instructions: 80000003 cycles: 23346124 heartbeat IPC: 3.40595 cumulative IPC: 3.42669 (Simulation time: 0 hr 3 min 27 sec) 
Heartbeat CPU 0 instructions: 90000002 cycles: 26290263 heartbeat IPC: 3.39658 cumulative IPC: 3.42332 (Simulation time: 0 hr 3 min 53 sec) 
Heartbeat CPU 0 instructions: 100000000 cycles: 29256327 heartbeat IPC: 3.37147 cumulative IPC: 3.41806 (Simulation time: 0 hr 4 min 19 sec) 
Heartbeat CPU 0 instructions: 110000002 cycles: 32143708 heartbeat IPC: 3.46335 cumulative IPC: 3.42213 (Simulation time: 0 hr 4 min 45 sec) 
Heartbeat CPU 0 instructions: 120000003 cycles: 35066363 heartbeat IPC: 3.42155 cumulative IPC: 3.42208 (Simulation time: 0 hr 5 min 12 sec) 
Heartbeat CPU 0 instructions: 130000002 cycles: 37950627 heartbeat IPC: 3.46709 cumulative IPC: 3.4255 (Simulation time: 0 hr 5 min 38 sec) 
Heartbeat CPU 0 instructions: 140000002 cycles: 40906927 heartbeat IPC: 3.38261 cumulative IPC: 3.4224 (Simulation time: 0 hr 6 min 5 sec) 
Heartbeat CPU 0 instructions: 150000004 cycles: 43798870 heartbeat IPC: 3.45788 cumulative IPC: 3.42475 (Simulation time: 0 hr 6 min 30 sec) 
Heartbeat CPU 0 instructions: 160000000 cycles: 46783831 heartbeat IPC: 3.35013 cumulative IPC: 3.41999 (Simulation time: 0 hr 6 min 56 sec) 
Heartbeat CPU 0 instructions: 170000000 cycles: 49714927 heartbeat IPC: 3.41169 cumulative IPC: 3.4195 (Simulation time: 0 hr 7 min 22 sec) 
Heartbeat CPU 0 instructions: 180000003 cycles: 52648282 heartbeat IPC: 3.40907 cumulative IPC: 3.41892 (Simulation time: 0 hr 7 min 48 sec) 
Heartbeat CPU 0 instructions: 190000000 cycles: 55545021 heartbeat IPC: 3.45216 cumulative IPC: 3.42065 (Simulation time: 0 hr 8 min 14 sec) 
Heartbeat CPU 0 instructions: 200000003 cycles: 58431452 heartbeat IPC: 3.46449 cumulative IPC: 3.42281 (Simulation time: 0 hr 8 min 40 sec) 

Warmup complete CPU 0 instructions: 200000003 cycles: 58431452 (Simulation time: 0 hr 8 min 40 sec) 

Heartbeat CPU 0 instructions: 210000004 cycles: 62264623 heartbeat IPC: 2.60881 cumulative IPC: 2.60881 (Simulation time: 0 hr 9 min 4 sec) 
Heartbeat CPU 0 instructions: 220000001 cycles: 66290932 heartbeat IPC: 2.48366 cumulative IPC: 2.5447 (Simulation time: 0 hr 9 min 30 sec) 
Heartbeat CPU 0 instructions: 230000003 cycles: 69996147 heartbeat IPC: 2.6989 cumulative IPC: 2.5941 (Simulation time: 0 hr 9 min 53 sec) 
Heartbeat CPU 0 instructions: 240000004 cycles: 73850065 heartbeat IPC: 2.59476 cumulative IPC: 2.59427 (Simulation time: 0 hr 10 min 17 sec) 
Heartbeat CPU 0 instructions: 250000003 cycles: 77681692 heartbeat IPC: 2.60986 cumulative IPC: 2.59737 (Simulation time: 0 hr 10 min 43 sec) 
Heartbeat CPU 0 instructions: 260000003 cycles: 81769412 heartbeat IPC: 2.44635 cumulative IPC: 2.57092 (Simulation time: 0 hr 11 min 8 sec) 
Heartbeat CPU 0 instructions: 270000000 cycles: 85854361 heartbeat IPC: 2.44801 cumulative IPC: 2.55261 (Simulation time: 0 hr 11 min 33 sec) 
Heartbeat CPU 0 instructions: 280000002 cycles: 89796344 heartbeat IPC: 2.53679 cumulative IPC: 2.55062 (Simulation time: 0 hr 11 min 58 sec) 
Heartbeat CPU 0 instructions: 290000002 cycles: 93718456 heartbeat IPC: 2.54965 cumulative IPC: 2.55051 (Simulation time: 0 hr 12 min 23 sec) 
Heartbeat CPU 0 instructions: 300000003 cycles: 97582354 heartbeat IPC: 2.58806 cumulative IPC: 2.55422 (Simulation time: 0 hr 12 min 47 sec) 
Heartbeat CPU 0 instructions: 310000000 cycles: 101291163 heartbeat IPC: 2.69628 cumulative IPC: 2.56651 (Simulation time: 0 hr 13 min 11 sec) 
Heartbeat CPU 0 instructions: 320000002 cycles: 105348681 heartbeat IPC: 2.46456 cumulative IPC: 2.5577 (Simulation time: 0 hr 13 min 37 sec) 
Heartbeat CPU 0 instructions: 330000001 cycles: 109394813 heartbeat IPC: 2.4715 cumulative IPC: 2.55085 (Simulation time: 0 hr 14 min 3 sec) 
Heartbeat CPU 0 instructions: 340000000 cycles: 113552706 heartbeat IPC: 2.40506 cumulative IPC: 2.53986 (Simulation time: 0 hr 14 min 29 sec) 
Heartbeat CPU 0 instructions: 350000003 cycles: 117407956 heartbeat IPC: 2.59387 cumulative IPC: 2.54339 (Simulation time: 0 hr 14 min 52 sec) 
Heartbeat CPU 0 instructions: 360000003 cycles: 121386031 heartbeat IPC: 2.51378 cumulative IPC: 2.54151 (Simulation time: 0 hr 15 min 19 sec) 
Heartbeat CPU 0 instructions: 370000004 cycles: 125122589 heartbeat IPC: 2.67626 cumulative IPC: 2.54906 (Simulation time: 0 hr 15 min 42 sec) 
Heartbeat CPU 0 instructions: 380000003 cycles: 129161921 heartbeat IPC: 2.47566 cumulative IPC: 2.54487 (Simulation time: 0 hr 16 min 7 sec) 
Heartbeat CPU 0 instructions: 390000000 cycles: 133143092 heartbeat IPC: 2.51182 cumulative IPC: 2.54311 (Simulation time: 0 hr 16 min 31 sec) 
Heartbeat CPU 0 instructions: 400000000 cycles: 137151859 heartbeat IPC: 2.49453 cumulative IPC: 2.54064 (Simulation time: 0 hr 16 min 56 sec) 
Heartbeat CPU 0 instructions: 410000000 cycles: 141005232 heartbeat IPC: 2.59513 cumulative IPC: 2.54318 (Simulation time: 0 hr 17 min 20 sec) 
Heartbeat CPU 0 instructions: 420000000 cycles: 145097199 heartbeat IPC: 2.44381 cumulative IPC: 2.53849 (Simulation time: 0 hr 17 min 46 sec) 
Heartbeat CPU 0 instructions: 430000002 cycles: 148837213 heartbeat IPC: 2.67379 cumulative IPC: 2.54409 (Simulation time: 0 hr 18 min 9 sec) 
Heartbeat CPU 0 instructions: 440000001 cycles: 152932557 heartbeat IPC: 2.4418 cumulative IPC: 2.53965 (Simulation time: 0 hr 18 min 34 sec) 
Heartbeat CPU 0 instructions: 450000003 cycles: 156855098 heartbeat IPC: 2.54937 cumulative IPC: 2.54004 (Simulation time: 0 hr 18 min 59 sec) 
Heartbeat CPU 0 instructions: 460000001 cycles: 161060397 heartbeat IPC: 2.37795 cumulative IPC: 2.5334 (Simulation time: 0 hr 19 min 25 sec) 
Heartbeat CPU 0 instructions: 470000002 cycles: 165255352 heartbeat IPC: 2.38382 cumulative IPC: 2.52752 (Simulation time: 0 hr 19 min 50 sec) 
Heartbeat CPU 0 instructions: 480000000 cycles: 169242598 heartbeat IPC: 2.508 cumulative IPC: 2.52682 (Simulation time: 0 hr 20 min 15 sec) 
Heartbeat CPU 0 instructions: 490000001 cycles: 173234261 heartbeat IPC: 2.50522 cumulative IPC: 2.52607 (Simulation time: 0 hr 20 min 40 sec) 
Heartbeat CPU 0 instructions: 500000001 cycles: 176881484 heartbeat IPC: 2.74181 cumulative IPC: 2.53271 (Simulation time: 0 hr 21 min 4 sec) 
Heartbeat CPU 0 instructions: 510000000 cycles: 180777757 heartbeat IPC: 2.56656 cumulative IPC: 2.53379 (Simulation time: 0 hr 21 min 30 sec) 
Heartbeat CPU 0 instructions: 520000001 cycles: 184515611 heartbeat IPC: 2.67533 cumulative IPC: 2.53799 (Simulation time: 0 hr 21 min 54 sec) 
Heartbeat CPU 0 instructions: 530000003 cycles: 188505971 heartbeat IPC: 2.50604 cumulative IPC: 2.53701 (Simulation time: 0 hr 22 min 20 sec) 
Heartbeat CPU 0 instructions: 540000000 cycles: 192550584 heartbeat IPC: 2.47242 cumulative IPC: 2.53506 (Simulation time: 0 hr 22 min 45 sec) 
Heartbeat CPU 0 instructions: 550000002 cycles: 196298728 heartbeat IPC: 2.66799 cumulative IPC: 2.53867 (Simulation time: 0 hr 23 min 9 sec) 
Heartbeat CPU 0 instructions: 560000002 cycles: 200311571 heartbeat IPC: 2.492 cumulative IPC: 2.53735 (Simulation time: 0 hr 23 min 35 sec) 
Heartbeat CPU 0 instructions: 570000000 cycles: 203941438 heartbeat IPC: 2.75492 cumulative IPC: 2.54278 (Simulation time: 0 hr 23 min 59 sec) 
Heartbeat CPU 0 instructions: 580000001 cycles: 207653348 heartbeat IPC: 2.69403 cumulative IPC: 2.54654 (Simulation time: 0 hr 24 min 22 sec) 
Heartbeat CPU 0 instructions: 590000002 cycles: 211351016 heartbeat IPC: 2.70441 cumulative IPC: 2.55036 (Simulation time: 0 hr 24 min 47 sec) 
Heartbeat CPU 0 instructions: 600000003 cycles: 215336499 heartbeat IPC: 2.50911 cumulative IPC: 2.54931 (Simulation time: 0 hr 25 min 13 sec) 
Heartbeat CPU 0 instructions: 610000000 cycles: 219411582 heartbeat IPC: 2.45394 cumulative IPC: 2.5469 (Simulation time: 0 hr 25 min 39 sec) 
Heartbeat CPU 0 instructions: 620000001 cycles: 223334967 heartbeat IPC: 2.54882 cumulative IPC: 2.54694 (Simulation time: 0 hr 26 min 5 sec) 
Heartbeat CPU 0 instructions: 630000003 cycles: 227127228 heartbeat IPC: 2.63695 cumulative IPC: 2.54897 (Simulation time: 0 hr 26 min 29 sec) 
Heartbeat CPU 0 instructions: 640000003 cycles: 230965157 heartbeat IPC: 2.60557 cumulative IPC: 2.55023 (Simulation time: 0 hr 26 min 54 sec) 
Heartbeat CPU 0 instructions: 650000004 cycles: 234589359 heartbeat IPC: 2.75923 cumulative IPC: 2.55453 (Simulation time: 0 hr 27 min 17 sec) 
Heartbeat CPU 0 instructions: 660000000 cycles: 238490513 heartbeat IPC: 2.56334 cumulative IPC: 2.55472 (Simulation time: 0 hr 27 min 42 sec) 
Heartbeat CPU 0 instructions: 670000000 cycles: 242150139 heartbeat IPC: 2.73252 cumulative IPC: 2.55826 (Simulation time: 0 hr 28 min 6 sec) 
Heartbeat CPU 0 instructions: 680000001 cycles: 246251984 heartbeat IPC: 2.43793 cumulative IPC: 2.55563 (Simulation time: 0 hr 28 min 32 sec) 
Heartbeat CPU 0 instructions: 690000004 cycles: 250218379 heartbeat IPC: 2.52118 cumulative IPC: 2.55492 (Simulation time: 0 hr 28 min 58 sec) 
Heartbeat CPU 0 instructions: 700000002 cycles: 253954081 heartbeat IPC: 2.67687 cumulative IPC: 2.55725 (Simulation time: 0 hr 29 min 21 sec) 
Finished CPU 0 instructions: 500000004 cycles: 195522630 cumulative IPC: 2.55725 (Simulation time: 0 hr 29 min 21 sec) 

ChampSim completed all CPUs

Region of Interest Statistics

CPU 0 cumulative IPC: 2.55725 instructions: 500000004 cycles: 195522630
cpu0_L1I TOTAL     ACCESS:     444785  HIT:     444785  MISS:          0
cpu0_L1I LOAD      ACCESS:     444785  HIT:     444785  MISS:          0
cpu0_L1I RFO       ACCESS:          0  HIT:          0  MISS:          0
cpu0_L1I PREFETCH  ACCESS:          0  HIT:          0  MISS:          0
cpu0_L1I WRITEBACK ACCESS:          0  HIT:          0  MISS:          0
cpu0_L1I TRANSLATION ACCESS:          0  HIT:          0  MISS:          0
cpu0_L1I PREFETCH  REQUESTED:          0  ISSUED:          0  USEFUL:          0  USELESS:          0
cpu0_L1I AVERAGE MISS LATENCY: -nan cycles
cpu0_DTLB TOTAL     ACCESS:   96849274  HIT:   96847147  MISS:       2127
cpu0_DTLB LOAD      ACCESS:   85473297  HIT:   85471178  MISS:       2119
cpu0_DTLB RFO       ACCESS:   11375977  HIT:   11375969  MISS:          8
cpu0_DTLB PREFETCH  ACCESS:          0  HIT:          0  MISS:          0
cpu0_DTLB WRITEBACK ACCESS:          0  HIT:          0  MISS:          0
cpu0_DTLB TRANSLATION ACCESS:          0  HIT:          0  MISS:          0
cpu0_DTLB PREFETCH  REQUESTED:          0  ISSUED:          0  USEFUL:          0  USELESS:          0
cpu0_DTLB AVERAGE MISS LATENCY: 52.1006 cycles
cpu0_ITLB TOTAL     ACCESS:   16612850  HIT:   16612850  MISS:          0
cpu0_ITLB LOAD      ACCESS:   16612850  HIT:   16612850  MISS:          0
cpu0_ITLB RFO       ACCESS:          0  HIT:          0  MISS:          0
cpu0_ITLB PREFETCH  ACCESS:          0  HIT:          0  MISS:          0
cpu0_ITLB WRITEBACK ACCESS:          0  HIT:          0  MISS:          0
cpu0_ITLB TRANSLATION ACCESS:          0  HIT:          0  MISS:          0
cpu0_ITLB PREFETCH  REQUESTED:          0  ISSUED:          0  USEFUL:          0  USELESS:          0
cpu0_ITLB AVERAGE MISS LATENCY: -nan cycles
cpu0_STLB TOTAL     ACCESS:       2127  HIT:       1683  MISS:        444
cpu0_STLB LOAD      ACCESS:       2119  HIT:       1675  MISS:        444
cpu0_STLB RFO       ACCESS:          8  HIT:          8  MISS:          0
cpu0_STLB PREFETCH  ACCESS:          0  HIT:          0  MISS:          0
cpu0_STLB WRITEBACK ACCESS:          0  HIT:          0  MISS:          0
cpu0_STLB TRANSLATION ACCESS:          0  HIT:          0  MISS:          0
cpu0_STLB PREFETCH  REQUESTED:          0  ISSUED:          0  USEFUL:          0  USELESS:          0
cpu0_STLB AVERAGE MISS LATENCY: 206.41 cycles
cpu0_L1D TOTAL     ACCESS:   89202532  HIT:   89181340  MISS:      21192
cpu0_L1D LOAD      ACCESS:   73414280  HIT:   73393092  MISS:      21188
cpu0_L1D RFO       ACCESS:   15787809  HIT:   15787805  MISS:          4
cpu0_L1D PREFETCH  ACCESS:          0  HIT:          0  MISS:          0
cpu0_L1D WRITEBACK ACCESS:          0  HIT:          0  MISS:          0
cpu0_L1D TRANSLATION ACCESS:        443  HIT:        443  MISS:          0
cpu0_L1D PREFETCH  REQUESTED:          0  ISSUED:          0  USEFUL:          0  USELESS:          0
cpu0_L1D AVERAGE MISS LATENCY: 71.3115 cycles
cpu0_L2C TOTAL     ACCESS:      22292  HIT:       1951  MISS:      20341
cpu0_L2C LOAD      ACCESS:      21188  HIT:        851  MISS:      20337
cpu0_L2C RFO       ACCESS:          4  HIT:          0  MISS:          4
cpu0_L2C PREFETCH  ACCESS:          0  HIT:          0  MISS:          0
cpu0_L2C WRITEBACK ACCESS:       1100  HIT:       1100  MISS:          0
cpu0_L2C TRANSLATION ACCESS:          0  HIT:          0  MISS:          0
cpu0_L2C PREFETCH  REQUESTED:          0  ISSUED:          0  USEFUL:          0  USELESS:          0
cpu0_L2C AVERAGE MISS LATENCY: 62.8286 cycles
LLC TOTAL     ACCESS:      31078  HIT:       9554  MISS:      21524
LLC LOAD      ACCESS:      20337  HIT:       7468  MISS:      12869
LLC RFO       ACCESS:          4  HIT:          0  MISS:          4
LLC PREFETCH  ACCESS:      10737  HIT:       2086  MISS:       8651
LLC WRITEBACK ACCESS:          0  HIT:          0  MISS:          0
LLC TRANSLATION ACCESS:          0  HIT:          0  MISS:          0
LLC PREFETCH  REQUESTED:      20337  ISSUED:      20337  USEFUL:      16183  USELESS:        808
LLC AVERAGE MISS LATENCY: 73.4989 cycles

DRAM Statistics
 CHANNEL 0
 RQ ROW_BUFFER_HIT:      12895  ROW_BUFFER_MISS:       8629
 DBUS AVG_CONGESTED_CYCLE:    3.58095
 WQ ROW_BUFFER_HIT:          0  ROW_BUFFER_MISS:          0  FULL:          0


CPU 0 Branch Prediction Accuracy: 96.0148% MPKI: 2.40776 Average ROB Occupancy at Mispredict: 95.0596
Branch type MPKI
BRANCH_DIRECT_JUMP: 0
BRANCH_INDIRECT: 0
BRANCH_CONDITIONAL: 2.40776
BRANCH_DIRECT_CALL: 0
BRANCH_INDIRECT_CALL: 0
BRANCH_RETURN: 0

