/home/caslab/workspace/sim/ChampSim/bin/champsim --warmup_instructions 200000000 --simulation_instructions 500000000/ /home/caslab/workspace/sim/traces/speccpu_by_champsim444.namd-426B.champsimtrace.xz
start simulation for 444.namd-426B.champsimtrace.xz

*** ChampSim Multicore Out-of-Order Simulator ***

Warmup Instructions: 200000000
Simulation Instructions: 500000000
Number of CPUs: 1
Off-chip DRAM Size: 4 GiB Channels: 1 Width: 64-bit Data Rate: 3200 MT/s

VirtualMemory physical capacity: 8588881920 num_ppages: 2096895
VirtualMemory page size: 4096 log2_page_size: 12

CPU 0 runs /home/caslab/workspace/sim/traces/speccpu_by_champsim/444.namd-426B.champsimtrace.xz
CPU 0 Bimodal branch predictor
Basic BTB sets: 1024 ways: 8 indirect buffer size: 4096 RAS size: 64
LLC next line prefetcher
WARNING: The extended signature CACHE::prefetch_line(ip, base_addr, pf_addr, fill_this_level, prefetch_metadata) is deprecated.
WARNING: Use CACHE::prefetch_line(pf_addr, fill_this_level, prefetch_metadata) instead.
Heartbeat CPU 0 instructions: 10000001 cycles: 2854168 heartbeat IPC: 3.50365 cumulative IPC: 3.50365 (Simulation time: 0 hr 0 min 25 sec) 
Heartbeat CPU 0 instructions: 20000004 cycles: 5586399 heartbeat IPC: 3.66001 cumulative IPC: 3.58012 (Simulation time: 0 hr 0 min 48 sec) 
Heartbeat CPU 0 instructions: 30000000 cycles: 8334789 heartbeat IPC: 3.63849 cumulative IPC: 3.59937 (Simulation time: 0 hr 1 min 11 sec) 
Heartbeat CPU 0 instructions: 40000000 cycles: 11144043 heartbeat IPC: 3.55966 cumulative IPC: 3.58936 (Simulation time: 0 hr 1 min 35 sec) 
Heartbeat CPU 0 instructions: 50000003 cycles: 13962171 heartbeat IPC: 3.54846 cumulative IPC: 3.58111 (Simulation time: 0 hr 1 min 59 sec) 
Heartbeat CPU 0 instructions: 60000001 cycles: 16743886 heartbeat IPC: 3.5949 cumulative IPC: 3.5834 (Simulation time: 0 hr 2 min 22 sec) 
Heartbeat CPU 0 instructions: 70000004 cycles: 19518345 heartbeat IPC: 3.60431 cumulative IPC: 3.58637 (Simulation time: 0 hr 2 min 46 sec) 
Heartbeat CPU 0 instructions: 80000003 cycles: 22282252 heartbeat IPC: 3.61807 cumulative IPC: 3.5903 (Simulation time: 0 hr 3 min 10 sec) 
Heartbeat CPU 0 instructions: 90000003 cycles: 24968327 heartbeat IPC: 3.7229 cumulative IPC: 3.60457 (Simulation time: 0 hr 3 min 32 sec) 
Heartbeat CPU 0 instructions: 100000001 cycles: 27860919 heartbeat IPC: 3.45711 cumulative IPC: 3.58926 (Simulation time: 0 hr 3 min 57 sec) 
Heartbeat CPU 0 instructions: 110000002 cycles: 30644855 heartbeat IPC: 3.59204 cumulative IPC: 3.58951 (Simulation time: 0 hr 4 min 20 sec) 
Heartbeat CPU 0 instructions: 120000001 cycles: 33434552 heartbeat IPC: 3.58462 cumulative IPC: 3.5891 (Simulation time: 0 hr 4 min 44 sec) 
Heartbeat CPU 0 instructions: 130000004 cycles: 36292534 heartbeat IPC: 3.49897 cumulative IPC: 3.582 (Simulation time: 0 hr 5 min 8 sec) 
Heartbeat CPU 0 instructions: 140000000 cycles: 39041755 heartbeat IPC: 3.63739 cumulative IPC: 3.5859 (Simulation time: 0 hr 5 min 31 sec) 
Heartbeat CPU 0 instructions: 150000003 cycles: 41901611 heartbeat IPC: 3.49668 cumulative IPC: 3.57981 (Simulation time: 0 hr 5 min 56 sec) 
Heartbeat CPU 0 instructions: 160000004 cycles: 44651776 heartbeat IPC: 3.63615 cumulative IPC: 3.58328 (Simulation time: 0 hr 6 min 19 sec) 
Heartbeat CPU 0 instructions: 170000003 cycles: 47485113 heartbeat IPC: 3.52941 cumulative IPC: 3.58007 (Simulation time: 0 hr 6 min 43 sec) 
Heartbeat CPU 0 instructions: 180000002 cycles: 50207207 heartbeat IPC: 3.67364 cumulative IPC: 3.58514 (Simulation time: 0 hr 7 min 6 sec) 
Heartbeat CPU 0 instructions: 190000004 cycles: 52978766 heartbeat IPC: 3.60808 cumulative IPC: 3.58634 (Simulation time: 0 hr 7 min 30 sec) 
Heartbeat CPU 0 instructions: 200000000 cycles: 55795041 heartbeat IPC: 3.55079 cumulative IPC: 3.58455 (Simulation time: 0 hr 7 min 54 sec) 

Warmup complete CPU 0 instructions: 200000004 cycles: 55795042 (Simulation time: 0 hr 7 min 54 sec) 

Heartbeat CPU 0 instructions: 210000004 cycles: 60301204 heartbeat IPC: 2.21918 cumulative IPC: 2.21918 (Simulation time: 0 hr 8 min 21 sec) 
Heartbeat CPU 0 instructions: 220000004 cycles: 64863355 heartbeat IPC: 2.19195 cumulative IPC: 2.20548 (Simulation time: 0 hr 8 min 48 sec) 
Heartbeat CPU 0 instructions: 230000001 cycles: 69006299 heartbeat IPC: 2.41374 cumulative IPC: 2.27079 (Simulation time: 0 hr 9 min 13 sec) 
Heartbeat CPU 0 instructions: 240000003 cycles: 73733336 heartbeat IPC: 2.11549 cumulative IPC: 2.22987 (Simulation time: 0 hr 9 min 42 sec) 
Heartbeat CPU 0 instructions: 250000004 cycles: 77966851 heartbeat IPC: 2.3621 cumulative IPC: 2.25512 (Simulation time: 0 hr 10 min 8 sec) 
Heartbeat CPU 0 instructions: 260000003 cycles: 82501409 heartbeat IPC: 2.20529 cumulative IPC: 2.24666 (Simulation time: 0 hr 10 min 35 sec) 
Heartbeat CPU 0 instructions: 270000003 cycles: 86634844 heartbeat IPC: 2.4193 cumulative IPC: 2.26979 (Simulation time: 0 hr 11 min 0 sec) 
Heartbeat CPU 0 instructions: 280000000 cycles: 91171969 heartbeat IPC: 2.20404 cumulative IPC: 2.26136 (Simulation time: 0 hr 11 min 28 sec) 
Heartbeat CPU 0 instructions: 290000000 cycles: 95486887 heartbeat IPC: 2.31754 cumulative IPC: 2.26747 (Simulation time: 0 hr 11 min 54 sec) 
Heartbeat CPU 0 instructions: 300000001 cycles: 99622719 heartbeat IPC: 2.41789 cumulative IPC: 2.28166 (Simulation time: 0 hr 12 min 20 sec) 
Heartbeat CPU 0 instructions: 310000004 cycles: 104181670 heartbeat IPC: 2.19349 cumulative IPC: 2.27336 (Simulation time: 0 hr 12 min 48 sec) 
Heartbeat CPU 0 instructions: 320000000 cycles: 108290602 heartbeat IPC: 2.43372 cumulative IPC: 2.28591 (Simulation time: 0 hr 13 min 14 sec) 
Heartbeat CPU 0 instructions: 330000001 cycles: 112926163 heartbeat IPC: 2.15724 cumulative IPC: 2.27547 (Simulation time: 0 hr 13 min 42 sec) 
Heartbeat CPU 0 instructions: 340000003 cycles: 117235915 heartbeat IPC: 2.32032 cumulative IPC: 2.27861 (Simulation time: 0 hr 14 min 8 sec) 
Heartbeat CPU 0 instructions: 350000000 cycles: 121634424 heartbeat IPC: 2.2735 cumulative IPC: 2.27827 (Simulation time: 0 hr 14 min 35 sec) 
Heartbeat CPU 0 instructions: 360000001 cycles: 125613762 heartbeat IPC: 2.51298 cumulative IPC: 2.29165 (Simulation time: 0 hr 15 min 0 sec) 
Heartbeat CPU 0 instructions: 370000001 cycles: 130292124 heartbeat IPC: 2.1375 cumulative IPC: 2.28197 (Simulation time: 0 hr 15 min 28 sec) 
Heartbeat CPU 0 instructions: 380000002 cycles: 134476500 heartbeat IPC: 2.38984 cumulative IPC: 2.28771 (Simulation time: 0 hr 15 min 53 sec) 
Heartbeat CPU 0 instructions: 390000000 cycles: 139259877 heartbeat IPC: 2.09057 cumulative IPC: 2.27641 (Simulation time: 0 hr 16 min 22 sec) 
Heartbeat CPU 0 instructions: 400000001 cycles: 144032254 heartbeat IPC: 2.09539 cumulative IPC: 2.26662 (Simulation time: 0 hr 16 min 50 sec) 
Heartbeat CPU 0 instructions: 410000002 cycles: 148867525 heartbeat IPC: 2.06814 cumulative IPC: 2.25631 (Simulation time: 0 hr 17 min 19 sec) 
Heartbeat CPU 0 instructions: 420000004 cycles: 153611948 heartbeat IPC: 2.10774 cumulative IPC: 2.2491 (Simulation time: 0 hr 17 min 47 sec) 
Heartbeat CPU 0 instructions: 430000001 cycles: 158226663 heartbeat IPC: 2.16698 cumulative IPC: 2.2454 (Simulation time: 0 hr 18 min 15 sec) 
Heartbeat CPU 0 instructions: 440000000 cycles: 163018968 heartbeat IPC: 2.08668 cumulative IPC: 2.23831 (Simulation time: 0 hr 18 min 44 sec) 
Heartbeat CPU 0 instructions: 450000001 cycles: 167717446 heartbeat IPC: 2.12835 cumulative IPC: 2.23369 (Simulation time: 0 hr 19 min 11 sec) 
Heartbeat CPU 0 instructions: 460000004 cycles: 172382706 heartbeat IPC: 2.1435 cumulative IPC: 2.23008 (Simulation time: 0 hr 19 min 39 sec) 
Heartbeat CPU 0 instructions: 470000000 cycles: 176984633 heartbeat IPC: 2.173 cumulative IPC: 2.22791 (Simulation time: 0 hr 20 min 7 sec) 
Heartbeat CPU 0 instructions: 480000000 cycles: 181705642 heartbeat IPC: 2.11819 cumulative IPC: 2.2238 (Simulation time: 0 hr 20 min 35 sec) 
Heartbeat CPU 0 instructions: 490000004 cycles: 186376263 heartbeat IPC: 2.14104 cumulative IPC: 2.22084 (Simulation time: 0 hr 21 min 3 sec) 
Heartbeat CPU 0 instructions: 500000003 cycles: 191057677 heartbeat IPC: 2.13611 cumulative IPC: 2.21791 (Simulation time: 0 hr 21 min 31 sec) 
Heartbeat CPU 0 instructions: 510000004 cycles: 195675810 heartbeat IPC: 2.16538 cumulative IPC: 2.21617 (Simulation time: 0 hr 21 min 59 sec) 
Heartbeat CPU 0 instructions: 520000000 cycles: 200417429 heartbeat IPC: 2.10898 cumulative IPC: 2.21266 (Simulation time: 0 hr 22 min 27 sec) 
Heartbeat CPU 0 instructions: 530000004 cycles: 205084399 heartbeat IPC: 2.14272 cumulative IPC: 2.21047 (Simulation time: 0 hr 22 min 55 sec) 
Heartbeat CPU 0 instructions: 540000001 cycles: 209754546 heartbeat IPC: 2.14126 cumulative IPC: 2.20837 (Simulation time: 0 hr 23 min 23 sec) 
Heartbeat CPU 0 instructions: 550000001 cycles: 214434292 heartbeat IPC: 2.13687 cumulative IPC: 2.20626 (Simulation time: 0 hr 23 min 51 sec) 
Heartbeat CPU 0 instructions: 560000004 cycles: 219120585 heartbeat IPC: 2.13388 cumulative IPC: 2.20419 (Simulation time: 0 hr 24 min 20 sec) 
Heartbeat CPU 0 instructions: 570000004 cycles: 223810430 heartbeat IPC: 2.13227 cumulative IPC: 2.20218 (Simulation time: 0 hr 24 min 49 sec) 
Heartbeat CPU 0 instructions: 580000000 cycles: 228535281 heartbeat IPC: 2.11647 cumulative IPC: 2.19983 (Simulation time: 0 hr 25 min 17 sec) 
Heartbeat CPU 0 instructions: 590000000 cycles: 233290922 heartbeat IPC: 2.10277 cumulative IPC: 2.19723 (Simulation time: 0 hr 25 min 45 sec) 
Heartbeat CPU 0 instructions: 600000002 cycles: 237930294 heartbeat IPC: 2.15546 cumulative IPC: 2.19617 (Simulation time: 0 hr 26 min 13 sec) 
Heartbeat CPU 0 instructions: 610000002 cycles: 242619227 heartbeat IPC: 2.13268 cumulative IPC: 2.19458 (Simulation time: 0 hr 26 min 42 sec) 
Heartbeat CPU 0 instructions: 620000000 cycles: 247340732 heartbeat IPC: 2.11797 cumulative IPC: 2.19269 (Simulation time: 0 hr 27 min 10 sec) 
Heartbeat CPU 0 instructions: 630000003 cycles: 252086913 heartbeat IPC: 2.10696 cumulative IPC: 2.19062 (Simulation time: 0 hr 27 min 38 sec) 
Heartbeat CPU 0 instructions: 640000001 cycles: 256892794 heartbeat IPC: 2.08078 cumulative IPC: 2.18799 (Simulation time: 0 hr 28 min 6 sec) 
Heartbeat CPU 0 instructions: 650000000 cycles: 261584556 heartbeat IPC: 2.1314 cumulative IPC: 2.1867 (Simulation time: 0 hr 28 min 34 sec) 
Heartbeat CPU 0 instructions: 660000002 cycles: 266259700 heartbeat IPC: 2.13897 cumulative IPC: 2.18564 (Simulation time: 0 hr 29 min 2 sec) 
Heartbeat CPU 0 instructions: 670000000 cycles: 271003746 heartbeat IPC: 2.1079 cumulative IPC: 2.18393 (Simulation time: 0 hr 29 min 31 sec) 
Heartbeat CPU 0 instructions: 680000002 cycles: 275684822 heartbeat IPC: 2.13626 cumulative IPC: 2.18291 (Simulation time: 0 hr 29 min 59 sec) 
Heartbeat CPU 0 instructions: 690000003 cycles: 280270287 heartbeat IPC: 2.1808 cumulative IPC: 2.18287 (Simulation time: 0 hr 30 min 26 sec) 
Heartbeat CPU 0 instructions: 700000001 cycles: 284878381 heartbeat IPC: 2.17009 cumulative IPC: 2.18261 (Simulation time: 0 hr 30 min 55 sec) 
Finished CPU 0 instructions: 500000002 cycles: 229083340 cumulative IPC: 2.18261 (Simulation time: 0 hr 30 min 55 sec) 

ChampSim completed all CPUs

Region of Interest Statistics

CPU 0 cumulative IPC: 2.18261 instructions: 500000002 cycles: 229083340
cpu0_L1I TOTAL     ACCESS:       6890  HIT:       6890  MISS:          0
cpu0_L1I LOAD      ACCESS:       6890  HIT:       6890  MISS:          0
cpu0_L1I RFO       ACCESS:          0  HIT:          0  MISS:          0
cpu0_L1I PREFETCH  ACCESS:          0  HIT:          0  MISS:          0
cpu0_L1I WRITEBACK ACCESS:          0  HIT:          0  MISS:          0
cpu0_L1I TRANSLATION ACCESS:          0  HIT:          0  MISS:          0
cpu0_L1I PREFETCH  REQUESTED:          0  ISSUED:          0  USEFUL:          0  USELESS:          0
cpu0_L1I AVERAGE MISS LATENCY: -nan cycles
cpu0_DTLB TOTAL     ACCESS:   94276948  HIT:   94275493  MISS:       1455
cpu0_DTLB LOAD      ACCESS:   72125181  HIT:   72123736  MISS:       1445
cpu0_DTLB RFO       ACCESS:   22151767  HIT:   22151757  MISS:         10
cpu0_DTLB PREFETCH  ACCESS:          0  HIT:          0  MISS:          0
cpu0_DTLB WRITEBACK ACCESS:          0  HIT:          0  MISS:          0
cpu0_DTLB TRANSLATION ACCESS:          0  HIT:          0  MISS:          0
cpu0_DTLB PREFETCH  REQUESTED:          0  ISSUED:          0  USEFUL:          0  USELESS:          0
cpu0_DTLB AVERAGE MISS LATENCY: 70.1223 cycles
cpu0_ITLB TOTAL     ACCESS:   15768039  HIT:   15768039  MISS:          0
cpu0_ITLB LOAD      ACCESS:   15768039  HIT:   15768039  MISS:          0
cpu0_ITLB RFO       ACCESS:          0  HIT:          0  MISS:          0
cpu0_ITLB PREFETCH  ACCESS:          0  HIT:          0  MISS:          0
cpu0_ITLB WRITEBACK ACCESS:          0  HIT:          0  MISS:          0
cpu0_ITLB TRANSLATION ACCESS:          0  HIT:          0  MISS:          0
cpu0_ITLB PREFETCH  REQUESTED:          0  ISSUED:          0  USEFUL:          0  USELESS:          0
cpu0_ITLB AVERAGE MISS LATENCY: -nan cycles
cpu0_STLB TOTAL     ACCESS:       1455  HIT:       1003  MISS:        452
cpu0_STLB LOAD      ACCESS:       1445  HIT:        993  MISS:        452
cpu0_STLB RFO       ACCESS:         10  HIT:         10  MISS:          0
cpu0_STLB PREFETCH  ACCESS:          0  HIT:          0  MISS:          0
cpu0_STLB WRITEBACK ACCESS:          0  HIT:          0  MISS:          0
cpu0_STLB TRANSLATION ACCESS:          0  HIT:          0  MISS:          0
cpu0_STLB PREFETCH  REQUESTED:          0  ISSUED:          0  USEFUL:          0  USELESS:          0
cpu0_STLB AVERAGE MISS LATENCY: 196.754 cycles
cpu0_L1D TOTAL     ACCESS:  109471410  HIT:  109446981  MISS:      24429
cpu0_L1D LOAD      ACCESS:   75469757  HIT:   75445331  MISS:      24426
cpu0_L1D RFO       ACCESS:   34001203  HIT:   34001200  MISS:          3
cpu0_L1D PREFETCH  ACCESS:          0  HIT:          0  MISS:          0
cpu0_L1D WRITEBACK ACCESS:          0  HIT:          0  MISS:          0
cpu0_L1D TRANSLATION ACCESS:        450  HIT:        450  MISS:          0
cpu0_L1D PREFETCH  REQUESTED:          0  ISSUED:          0  USEFUL:          0  USELESS:          0
cpu0_L1D AVERAGE MISS LATENCY: 82.7192 cycles
cpu0_L2C TOTAL     ACCESS:      25957  HIT:       1595  MISS:      24362
cpu0_L2C LOAD      ACCESS:      24426  HIT:         65  MISS:      24361
cpu0_L2C RFO       ACCESS:          3  HIT:          2  MISS:          1
cpu0_L2C PREFETCH  ACCESS:          0  HIT:          0  MISS:          0
cpu0_L2C WRITEBACK ACCESS:       1528  HIT:       1528  MISS:          0
cpu0_L2C TRANSLATION ACCESS:          0  HIT:          0  MISS:          0
cpu0_L2C PREFETCH  REQUESTED:          0  ISSUED:          0  USEFUL:          0  USELESS:          0
cpu0_L2C AVERAGE MISS LATENCY: 71.9119 cycles
LLC TOTAL     ACCESS:      39805  HIT:      14408  MISS:      25397
LLC LOAD      ACCESS:      24361  HIT:      10654  MISS:      13707
LLC RFO       ACCESS:          1  HIT:          0  MISS:          1
LLC PREFETCH  ACCESS:      15443  HIT:       3754  MISS:      11689
LLC WRITEBACK ACCESS:          0  HIT:          0  MISS:          0
LLC TRANSLATION ACCESS:          0  HIT:          0  MISS:          0
LLC PREFETCH  REQUESTED:      24361  ISSUED:      24361  USEFUL:      18661  USELESS:       1247
LLC AVERAGE MISS LATENCY: 101.849 cycles

DRAM Statistics
 CHANNEL 0
 RQ ROW_BUFFER_HIT:      11831  ROW_BUFFER_MISS:      13566
 DBUS AVG_CONGESTED_CYCLE:    3.60041
 WQ ROW_BUFFER_HIT:          0  ROW_BUFFER_MISS:          0  FULL:          0


CPU 0 Branch Prediction Accuracy: 94.709% MPKI: 2.40292 Average ROB Occupancy at Mispredict: 90.9885
Branch type MPKI
BRANCH_DIRECT_JUMP: 0
BRANCH_INDIRECT: 0
BRANCH_CONDITIONAL: 2.40292
BRANCH_DIRECT_CALL: 0
BRANCH_INDIRECT_CALL: 0
BRANCH_RETURN: 0

