/home/caslab/workspace/sim/ChampSim/bin/champsim --warmup_instructions 200000000 --simulation_instructions 500000000/ /home/caslab/workspace/sim/traces/speccpu_by_champsim445.gobmk-30B.champsimtrace.xz
start simulation for 445.gobmk-30B.champsimtrace.xz

*** ChampSim Multicore Out-of-Order Simulator ***

Warmup Instructions: 200000000
Simulation Instructions: 500000000
Number of CPUs: 1
Off-chip DRAM Size: 4 GiB Channels: 1 Width: 64-bit Data Rate: 3200 MT/s

VirtualMemory physical capacity: 8588881920 num_ppages: 2096895
VirtualMemory page size: 4096 log2_page_size: 12

CPU 0 runs /home/caslab/workspace/sim/traces/speccpu_by_champsim/445.gobmk-30B.champsimtrace.xz
CPU 0 Bimodal branch predictor
Basic BTB sets: 1024 ways: 8 indirect buffer size: 4096 RAS size: 64
LLC next line prefetcher
WARNING: The extended signature CACHE::prefetch_line(ip, base_addr, pf_addr, fill_this_level, prefetch_metadata) is deprecated.
WARNING: Use CACHE::prefetch_line(pf_addr, fill_this_level, prefetch_metadata) instead.
Heartbeat CPU 0 instructions: 10000002 cycles: 2535272 heartbeat IPC: 3.94435 cumulative IPC: 3.94435 (Simulation time: 0 hr 0 min 22 sec) 
Heartbeat CPU 0 instructions: 20000000 cycles: 5070658 heartbeat IPC: 3.94417 cumulative IPC: 3.94426 (Simulation time: 0 hr 0 min 43 sec) 
Heartbeat CPU 0 instructions: 30000000 cycles: 7603266 heartbeat IPC: 3.9485 cumulative IPC: 3.94567 (Simulation time: 0 hr 1 min 4 sec) 
Heartbeat CPU 0 instructions: 40000001 cycles: 10142178 heartbeat IPC: 3.9387 cumulative IPC: 3.94393 (Simulation time: 0 hr 1 min 26 sec) 
Heartbeat CPU 0 instructions: 50000001 cycles: 12656851 heartbeat IPC: 3.97666 cumulative IPC: 3.95043 (Simulation time: 0 hr 1 min 47 sec) 
Heartbeat CPU 0 instructions: 60000000 cycles: 15185444 heartbeat IPC: 3.95477 cumulative IPC: 3.95115 (Simulation time: 0 hr 2 min 8 sec) 
Heartbeat CPU 0 instructions: 70000003 cycles: 17696719 heartbeat IPC: 3.98204 cumulative IPC: 3.95554 (Simulation time: 0 hr 2 min 29 sec) 
Heartbeat CPU 0 instructions: 80000001 cycles: 20205234 heartbeat IPC: 3.98642 cumulative IPC: 3.95937 (Simulation time: 0 hr 2 min 50 sec) 
Heartbeat CPU 0 instructions: 90000001 cycles: 22716623 heartbeat IPC: 3.98186 cumulative IPC: 3.96186 (Simulation time: 0 hr 3 min 11 sec) 
Heartbeat CPU 0 instructions: 100000000 cycles: 25226617 heartbeat IPC: 3.98407 cumulative IPC: 3.96407 (Simulation time: 0 hr 3 min 33 sec) 
Heartbeat CPU 0 instructions: 110000003 cycles: 27737229 heartbeat IPC: 3.98309 cumulative IPC: 3.96579 (Simulation time: 0 hr 3 min 54 sec) 
Heartbeat CPU 0 instructions: 120000004 cycles: 30249185 heartbeat IPC: 3.98096 cumulative IPC: 3.96705 (Simulation time: 0 hr 4 min 15 sec) 
Heartbeat CPU 0 instructions: 130000003 cycles: 32762334 heartbeat IPC: 3.97907 cumulative IPC: 3.96797 (Simulation time: 0 hr 4 min 36 sec) 
Heartbeat CPU 0 instructions: 140000002 cycles: 35277023 heartbeat IPC: 3.97663 cumulative IPC: 3.96859 (Simulation time: 0 hr 4 min 57 sec) 
Heartbeat CPU 0 instructions: 150000000 cycles: 38715863 heartbeat IPC: 2.90796 cumulative IPC: 3.87438 (Simulation time: 0 hr 5 min 28 sec) 
Heartbeat CPU 0 instructions: 160000003 cycles: 42034146 heartbeat IPC: 3.01361 cumulative IPC: 3.80643 (Simulation time: 0 hr 5 min 56 sec) 
Heartbeat CPU 0 instructions: 170000002 cycles: 44863084 heartbeat IPC: 3.5349 cumulative IPC: 3.78931 (Simulation time: 0 hr 6 min 20 sec) 
Heartbeat CPU 0 instructions: 180000003 cycles: 47386698 heartbeat IPC: 3.96257 cumulative IPC: 3.79853 (Simulation time: 0 hr 6 min 41 sec) 
Heartbeat CPU 0 instructions: 190000001 cycles: 49946775 heartbeat IPC: 3.90613 cumulative IPC: 3.80405 (Simulation time: 0 hr 7 min 3 sec) 
Heartbeat CPU 0 instructions: 200000003 cycles: 52487504 heartbeat IPC: 3.93588 cumulative IPC: 3.81043 (Simulation time: 0 hr 7 min 25 sec) 

Warmup complete CPU 0 instructions: 200000003 cycles: 52487504 (Simulation time: 0 hr 7 min 25 sec) 

Heartbeat CPU 0 instructions: 210000000 cycles: 63895053 heartbeat IPC: 0.876612 cumulative IPC: 0.876612 (Simulation time: 0 hr 7 min 47 sec) 
Heartbeat CPU 0 instructions: 220000004 cycles: 75761536 heartbeat IPC: 0.84271 cumulative IPC: 0.859327 (Simulation time: 0 hr 8 min 11 sec) 
Heartbeat CPU 0 instructions: 230000004 cycles: 87544119 heartbeat IPC: 0.84871 cumulative IPC: 0.855759 (Simulation time: 0 hr 8 min 34 sec) 
Heartbeat CPU 0 instructions: 240000000 cycles: 99001986 heartbeat IPC: 0.872762 cumulative IPC: 0.859947 (Simulation time: 0 hr 8 min 58 sec) 
Heartbeat CPU 0 instructions: 250000000 cycles: 110394839 heartbeat IPC: 0.877743 cumulative IPC: 0.863448 (Simulation time: 0 hr 9 min 21 sec) 
Heartbeat CPU 0 instructions: 260000002 cycles: 121979818 heartbeat IPC: 0.863187 cumulative IPC: 0.863405 (Simulation time: 0 hr 9 min 45 sec) 
Heartbeat CPU 0 instructions: 270000002 cycles: 133519812 heartbeat IPC: 0.866552 cumulative IPC: 0.863853 (Simulation time: 0 hr 10 min 7 sec) 
Heartbeat CPU 0 instructions: 280000004 cycles: 144968889 heartbeat IPC: 0.873433 cumulative IPC: 0.865039 (Simulation time: 0 hr 10 min 30 sec) 
Heartbeat CPU 0 instructions: 290000004 cycles: 156178375 heartbeat IPC: 0.892102 cumulative IPC: 0.867965 (Simulation time: 0 hr 10 min 53 sec) 
Heartbeat CPU 0 instructions: 300000000 cycles: 167824854 heartbeat IPC: 0.858628 cumulative IPC: 0.867022 (Simulation time: 0 hr 11 min 17 sec) 
Heartbeat CPU 0 instructions: 310000000 cycles: 179267868 heartbeat IPC: 0.873896 cumulative IPC: 0.867642 (Simulation time: 0 hr 11 min 40 sec) 
Heartbeat CPU 0 instructions: 320000000 cycles: 190848568 heartbeat IPC: 0.863506 cumulative IPC: 0.867296 (Simulation time: 0 hr 12 min 3 sec) 
Heartbeat CPU 0 instructions: 330000000 cycles: 201782499 heartbeat IPC: 0.914584 cumulative IPC: 0.870759 (Simulation time: 0 hr 12 min 26 sec) 
Heartbeat CPU 0 instructions: 340000003 cycles: 212646793 heartbeat IPC: 0.920447 cumulative IPC: 0.87413 (Simulation time: 0 hr 12 min 49 sec) 
Heartbeat CPU 0 instructions: 350000002 cycles: 223566404 heartbeat IPC: 0.915783 cumulative IPC: 0.876788 (Simulation time: 0 hr 13 min 12 sec) 
Heartbeat CPU 0 instructions: 360000004 cycles: 234939528 heartbeat IPC: 0.879266 cumulative IPC: 0.876943 (Simulation time: 0 hr 13 min 35 sec) 
Heartbeat CPU 0 instructions: 370000001 cycles: 246018253 heartbeat IPC: 0.902631 cumulative IPC: 0.878413 (Simulation time: 0 hr 13 min 58 sec) 
Heartbeat CPU 0 instructions: 380000002 cycles: 257787928 heartbeat IPC: 0.849641 cumulative IPC: 0.876764 (Simulation time: 0 hr 14 min 21 sec) 
Heartbeat CPU 0 instructions: 390000002 cycles: 269443837 heartbeat IPC: 0.857934 cumulative IPC: 0.875752 (Simulation time: 0 hr 14 min 44 sec) 
Heartbeat CPU 0 instructions: 400000000 cycles: 280782706 heartbeat IPC: 0.881922 cumulative IPC: 0.876059 (Simulation time: 0 hr 15 min 7 sec) 
Heartbeat CPU 0 instructions: 410000000 cycles: 292178602 heartbeat IPC: 0.877509 cumulative IPC: 0.876128 (Simulation time: 0 hr 15 min 31 sec) 
Heartbeat CPU 0 instructions: 420000000 cycles: 303664490 heartbeat IPC: 0.870634 cumulative IPC: 0.875876 (Simulation time: 0 hr 15 min 55 sec) 
Heartbeat CPU 0 instructions: 430000000 cycles: 314919781 heartbeat IPC: 0.888471 cumulative IPC: 0.876417 (Simulation time: 0 hr 16 min 18 sec) 
Heartbeat CPU 0 instructions: 440000000 cycles: 326176167 heartbeat IPC: 0.888385 cumulative IPC: 0.876909 (Simulation time: 0 hr 16 min 41 sec) 
Heartbeat CPU 0 instructions: 450000000 cycles: 337802959 heartbeat IPC: 0.860082 cumulative IPC: 0.876223 (Simulation time: 0 hr 17 min 4 sec) 
Heartbeat CPU 0 instructions: 460000001 cycles: 349609243 heartbeat IPC: 0.847007 cumulative IPC: 0.875062 (Simulation time: 0 hr 17 min 27 sec) 
Heartbeat CPU 0 instructions: 470000001 cycles: 361141842 heartbeat IPC: 0.867107 cumulative IPC: 0.874765 (Simulation time: 0 hr 17 min 50 sec) 
Heartbeat CPU 0 instructions: 480000001 cycles: 372850273 heartbeat IPC: 0.854085 cumulative IPC: 0.874009 (Simulation time: 0 hr 18 min 13 sec) 
Heartbeat CPU 0 instructions: 490000000 cycles: 384491862 heartbeat IPC: 0.858989 cumulative IPC: 0.873483 (Simulation time: 0 hr 18 min 36 sec) 
Heartbeat CPU 0 instructions: 500000003 cycles: 396113048 heartbeat IPC: 0.860498 cumulative IPC: 0.873043 (Simulation time: 0 hr 18 min 59 sec) 
Heartbeat CPU 0 instructions: 510000000 cycles: 407589081 heartbeat IPC: 0.871381 cumulative IPC: 0.87299 (Simulation time: 0 hr 19 min 22 sec) 
Heartbeat CPU 0 instructions: 520000000 cycles: 418983948 heartbeat IPC: 0.877588 cumulative IPC: 0.873133 (Simulation time: 0 hr 19 min 45 sec) 
Heartbeat CPU 0 instructions: 530000000 cycles: 430248237 heartbeat IPC: 0.887761 cumulative IPC: 0.873569 (Simulation time: 0 hr 20 min 8 sec) 
Heartbeat CPU 0 instructions: 540000000 cycles: 441546864 heartbeat IPC: 0.885063 cumulative IPC: 0.873903 (Simulation time: 0 hr 20 min 32 sec) 
Heartbeat CPU 0 instructions: 550000003 cycles: 453089145 heartbeat IPC: 0.86638 cumulative IPC: 0.873686 (Simulation time: 0 hr 20 min 55 sec) 
Heartbeat CPU 0 instructions: 560000001 cycles: 464548113 heartbeat IPC: 0.872679 cumulative IPC: 0.873658 (Simulation time: 0 hr 21 min 18 sec) 
Heartbeat CPU 0 instructions: 570000003 cycles: 476057365 heartbeat IPC: 0.868866 cumulative IPC: 0.873528 (Simulation time: 0 hr 21 min 42 sec) 
Heartbeat CPU 0 instructions: 580000004 cycles: 487378209 heartbeat IPC: 0.883326 cumulative IPC: 0.873783 (Simulation time: 0 hr 22 min 4 sec) 
Heartbeat CPU 0 instructions: 590000003 cycles: 498956866 heartbeat IPC: 0.863658 cumulative IPC: 0.87352 (Simulation time: 0 hr 22 min 28 sec) 
Heartbeat CPU 0 instructions: 600000003 cycles: 510343642 heartbeat IPC: 0.878212 cumulative IPC: 0.873637 (Simulation time: 0 hr 22 min 51 sec) 
Heartbeat CPU 0 instructions: 610000004 cycles: 521623887 heartbeat IPC: 0.886506 cumulative IPC: 0.873946 (Simulation time: 0 hr 23 min 14 sec) 
Heartbeat CPU 0 instructions: 620000000 cycles: 533260311 heartbeat IPC: 0.85937 cumulative IPC: 0.873594 (Simulation time: 0 hr 23 min 37 sec) 
Heartbeat CPU 0 instructions: 630000002 cycles: 544707243 heartbeat IPC: 0.873597 cumulative IPC: 0.873594 (Simulation time: 0 hr 24 min 0 sec) 
Heartbeat CPU 0 instructions: 640000001 cycles: 556115954 heartbeat IPC: 0.876523 cumulative IPC: 0.87366 (Simulation time: 0 hr 24 min 23 sec) 
Heartbeat CPU 0 instructions: 650000001 cycles: 567645337 heartbeat IPC: 0.867349 cumulative IPC: 0.873519 (Simulation time: 0 hr 24 min 46 sec) 
Heartbeat CPU 0 instructions: 660000003 cycles: 578934051 heartbeat IPC: 0.885841 cumulative IPC: 0.873783 (Simulation time: 0 hr 25 min 9 sec) 
Heartbeat CPU 0 instructions: 670000002 cycles: 590388408 heartbeat IPC: 0.87303 cumulative IPC: 0.873767 (Simulation time: 0 hr 25 min 32 sec) 
Heartbeat CPU 0 instructions: 680000002 cycles: 602002234 heartbeat IPC: 0.861043 cumulative IPC: 0.873498 (Simulation time: 0 hr 25 min 55 sec) 
Heartbeat CPU 0 instructions: 690000000 cycles: 613672779 heartbeat IPC: 0.856858 cumulative IPC: 0.873152 (Simulation time: 0 hr 26 min 18 sec) 
Heartbeat CPU 0 instructions: 700000000 cycles: 625230023 heartbeat IPC: 0.865258 cumulative IPC: 0.872993 (Simulation time: 0 hr 26 min 41 sec) 
Finished CPU 0 instructions: 500000002 cycles: 572742520 cumulative IPC: 0.872993 (Simulation time: 0 hr 26 min 41 sec) 

ChampSim completed all CPUs

Region of Interest Statistics

CPU 0 cumulative IPC: 0.872993 instructions: 500000002 cycles: 572742520
cpu0_L1I TOTAL     ACCESS:   57599917  HIT:   57598408  MISS:       1509
cpu0_L1I LOAD      ACCESS:   57599917  HIT:   57598408  MISS:       1509
cpu0_L1I RFO       ACCESS:          0  HIT:          0  MISS:          0
cpu0_L1I PREFETCH  ACCESS:          0  HIT:          0  MISS:          0
cpu0_L1I WRITEBACK ACCESS:          0  HIT:          0  MISS:          0
cpu0_L1I TRANSLATION ACCESS:          0  HIT:          0  MISS:          0
cpu0_L1I PREFETCH  REQUESTED:          0  ISSUED:          0  USEFUL:          0  USELESS:          0
cpu0_L1I AVERAGE MISS LATENCY: 101.541 cycles
cpu0_DTLB TOTAL     ACCESS:  113641378  HIT:  113542264  MISS:      99114
cpu0_DTLB LOAD      ACCESS:   76598561  HIT:   76504616  MISS:      93945
cpu0_DTLB RFO       ACCESS:   37042817  HIT:   37037648  MISS:       5169
cpu0_DTLB PREFETCH  ACCESS:          0  HIT:          0  MISS:          0
cpu0_DTLB WRITEBACK ACCESS:          0  HIT:          0  MISS:          0
cpu0_DTLB TRANSLATION ACCESS:          0  HIT:          0  MISS:          0
cpu0_DTLB PREFETCH  REQUESTED:          0  ISSUED:          0  USEFUL:          0  USELESS:          0
cpu0_DTLB AVERAGE MISS LATENCY: 9.91179 cycles
cpu0_ITLB TOTAL     ACCESS:   44744919  HIT:   44744881  MISS:         38
cpu0_ITLB LOAD      ACCESS:   44744919  HIT:   44744881  MISS:         38
cpu0_ITLB RFO       ACCESS:          0  HIT:          0  MISS:          0
cpu0_ITLB PREFETCH  ACCESS:          0  HIT:          0  MISS:          0
cpu0_ITLB WRITEBACK ACCESS:          0  HIT:          0  MISS:          0
cpu0_ITLB TRANSLATION ACCESS:          0  HIT:          0  MISS:          0
cpu0_ITLB PREFETCH  REQUESTED:          0  ISSUED:          0  USEFUL:          0  USELESS:          0
cpu0_ITLB AVERAGE MISS LATENCY: 217 cycles
cpu0_STLB TOTAL     ACCESS:      99152  HIT:      98684  MISS:        468
cpu0_STLB LOAD      ACCESS:      93983  HIT:      93628  MISS:        355
cpu0_STLB RFO       ACCESS:       5169  HIT:       5056  MISS:        113
cpu0_STLB PREFETCH  ACCESS:          0  HIT:          0  MISS:          0
cpu0_STLB WRITEBACK ACCESS:          0  HIT:          0  MISS:          0
cpu0_STLB TRANSLATION ACCESS:          0  HIT:          0  MISS:          0
cpu0_STLB PREFETCH  REQUESTED:          0  ISSUED:          0  USEFUL:          0  USELESS:          0
cpu0_STLB AVERAGE MISS LATENCY: 209.855 cycles
cpu0_L1D TOTAL     ACCESS:  144043615  HIT:  143919139  MISS:     124476
cpu0_L1D LOAD      ACCESS:   75784941  HIT:   75677060  MISS:     107881
cpu0_L1D RFO       ACCESS:   68258215  HIT:   68241622  MISS:      16593
cpu0_L1D PREFETCH  ACCESS:          0  HIT:          0  MISS:          0
cpu0_L1D WRITEBACK ACCESS:          0  HIT:          0  MISS:          0
cpu0_L1D TRANSLATION ACCESS:        459  HIT:        457  MISS:          2
cpu0_L1D PREFETCH  REQUESTED:          0  ISSUED:          0  USEFUL:          0  USELESS:          0
cpu0_L1D AVERAGE MISS LATENCY: 35.6868 cycles
cpu0_L2C TOTAL     ACCESS:     245536  HIT:     224865  MISS:      20671
cpu0_L2C LOAD      ACCESS:     109390  HIT:      95529  MISS:      13861
cpu0_L2C RFO       ACCESS:      16593  HIT:       9783  MISS:       6810
cpu0_L2C PREFETCH  ACCESS:          0  HIT:          0  MISS:          0
cpu0_L2C WRITEBACK ACCESS:     119551  HIT:     119551  MISS:          0
cpu0_L2C TRANSLATION ACCESS:          2  HIT:          2  MISS:          0
cpu0_L2C PREFETCH  REQUESTED:          0  ISSUED:          0  USEFUL:          0  USELESS:          0
cpu0_L2C AVERAGE MISS LATENCY: 154.918 cycles
LLC TOTAL     ACCESS:      27321  HIT:       4239  MISS:      23082
LLC LOAD      ACCESS:      13861  HIT:       2654  MISS:      11207
LLC RFO       ACCESS:       6810  HIT:         29  MISS:       6781
LLC PREFETCH  ACCESS:       6640  HIT:       1556  MISS:       5084
LLC WRITEBACK ACCESS:         10  HIT:          0  MISS:         10
LLC TRANSLATION ACCESS:          0  HIT:          0  MISS:          0
LLC PREFETCH  REQUESTED:      13861  ISSUED:      13861  USEFUL:       4291  USELESS:        103
LLC AVERAGE MISS LATENCY: 143.491 cycles

DRAM Statistics
 CHANNEL 0
 RQ ROW_BUFFER_HIT:      11516  ROW_BUFFER_MISS:      11556
 DBUS AVG_CONGESTED_CYCLE:    3.95205
 WQ ROW_BUFFER_HIT:          0  ROW_BUFFER_MISS:          0  FULL:          0


CPU 0 Branch Prediction Accuracy: 85.292% MPKI: 27.6676 Average ROB Occupancy at Mispredict: 12.1658
Branch type MPKI
BRANCH_DIRECT_JUMP: 0.001172
BRANCH_INDIRECT: 0.000114
BRANCH_CONDITIONAL: 27.6466
BRANCH_DIRECT_CALL: 0.00193
BRANCH_INDIRECT_CALL: 0.01603
BRANCH_RETURN: 0.001754

