/home/caslab/workspace/sim/ChampSim/bin/champsim --warmup_instructions 200000000 --simulation_instructions 500000000/ /home/caslab/workspace/sim/traces/speccpu_by_champsim445.gobmk-36B.champsimtrace.xz
start simulation for 445.gobmk-36B.champsimtrace.xz

*** ChampSim Multicore Out-of-Order Simulator ***

Warmup Instructions: 200000000
Simulation Instructions: 500000000
Number of CPUs: 1
Off-chip DRAM Size: 4 GiB Channels: 1 Width: 64-bit Data Rate: 3200 MT/s

VirtualMemory physical capacity: 8588881920 num_ppages: 2096895
VirtualMemory page size: 4096 log2_page_size: 12

CPU 0 runs /home/caslab/workspace/sim/traces/speccpu_by_champsim/445.gobmk-36B.champsimtrace.xz
CPU 0 Bimodal branch predictor
Basic BTB sets: 1024 ways: 8 indirect buffer size: 4096 RAS size: 64
LLC next line prefetcher
WARNING: The extended signature CACHE::prefetch_line(ip, base_addr, pf_addr, fill_this_level, prefetch_metadata) is deprecated.
WARNING: Use CACHE::prefetch_line(pf_addr, fill_this_level, prefetch_metadata) instead.
Heartbeat CPU 0 instructions: 10000004 cycles: 2524199 heartbeat IPC: 3.96165 cumulative IPC: 3.96165 (Simulation time: 0 hr 0 min 21 sec) 
Heartbeat CPU 0 instructions: 20000000 cycles: 5068450 heartbeat IPC: 3.93043 cumulative IPC: 3.94598 (Simulation time: 0 hr 0 min 42 sec) 
Heartbeat CPU 0 instructions: 30000003 cycles: 7615270 heartbeat IPC: 3.92647 cumulative IPC: 3.93945 (Simulation time: 0 hr 1 min 4 sec) 
Heartbeat CPU 0 instructions: 40000002 cycles: 10158159 heartbeat IPC: 3.93253 cumulative IPC: 3.93772 (Simulation time: 0 hr 1 min 26 sec) 
Heartbeat CPU 0 instructions: 50000002 cycles: 12700378 heartbeat IPC: 3.93357 cumulative IPC: 3.93689 (Simulation time: 0 hr 1 min 47 sec) 
Heartbeat CPU 0 instructions: 60000000 cycles: 15210640 heartbeat IPC: 3.98365 cumulative IPC: 3.94461 (Simulation time: 0 hr 2 min 9 sec) 
Heartbeat CPU 0 instructions: 70000003 cycles: 17757345 heartbeat IPC: 3.92664 cumulative IPC: 3.94203 (Simulation time: 0 hr 2 min 31 sec) 
Heartbeat CPU 0 instructions: 80000002 cycles: 20293870 heartbeat IPC: 3.9424 cumulative IPC: 3.94208 (Simulation time: 0 hr 2 min 52 sec) 
Heartbeat CPU 0 instructions: 90000003 cycles: 22827861 heartbeat IPC: 3.94634 cumulative IPC: 3.94255 (Simulation time: 0 hr 3 min 14 sec) 
Heartbeat CPU 0 instructions: 100000003 cycles: 25351577 heartbeat IPC: 3.96241 cumulative IPC: 3.94453 (Simulation time: 0 hr 3 min 35 sec) 
Heartbeat CPU 0 instructions: 110000000 cycles: 27899015 heartbeat IPC: 3.92551 cumulative IPC: 3.94279 (Simulation time: 0 hr 3 min 57 sec) 
Heartbeat CPU 0 instructions: 120000002 cycles: 30427072 heartbeat IPC: 3.95561 cumulative IPC: 3.94386 (Simulation time: 0 hr 4 min 18 sec) 
Heartbeat CPU 0 instructions: 130000002 cycles: 32958080 heartbeat IPC: 3.95099 cumulative IPC: 3.9444 (Simulation time: 0 hr 4 min 41 sec) 
Heartbeat CPU 0 instructions: 140000003 cycles: 35488400 heartbeat IPC: 3.95207 cumulative IPC: 3.94495 (Simulation time: 0 hr 5 min 2 sec) 
Heartbeat CPU 0 instructions: 150000002 cycles: 38050219 heartbeat IPC: 3.90348 cumulative IPC: 3.94216 (Simulation time: 0 hr 5 min 24 sec) 
Heartbeat CPU 0 instructions: 160000002 cycles: 40603677 heartbeat IPC: 3.91626 cumulative IPC: 3.94053 (Simulation time: 0 hr 5 min 45 sec) 
Heartbeat CPU 0 instructions: 170000002 cycles: 43127716 heartbeat IPC: 3.9619 cumulative IPC: 3.94178 (Simulation time: 0 hr 6 min 8 sec) 
Heartbeat CPU 0 instructions: 180000003 cycles: 45655016 heartbeat IPC: 3.95679 cumulative IPC: 3.94261 (Simulation time: 0 hr 6 min 29 sec) 
Heartbeat CPU 0 instructions: 190000002 cycles: 48177167 heartbeat IPC: 3.96487 cumulative IPC: 3.94378 (Simulation time: 0 hr 6 min 51 sec) 
Heartbeat CPU 0 instructions: 200000003 cycles: 50717234 heartbeat IPC: 3.9369 cumulative IPC: 3.94343 (Simulation time: 0 hr 7 min 12 sec) 

Warmup complete CPU 0 instructions: 200000003 cycles: 50717234 (Simulation time: 0 hr 7 min 12 sec) 

Heartbeat CPU 0 instructions: 210000002 cycles: 62153955 heartbeat IPC: 0.874376 cumulative IPC: 0.874376 (Simulation time: 0 hr 7 min 35 sec) 
Heartbeat CPU 0 instructions: 220000000 cycles: 73399802 heartbeat IPC: 0.889217 cumulative IPC: 0.881734 (Simulation time: 0 hr 7 min 58 sec) 
Heartbeat CPU 0 instructions: 230000002 cycles: 84831237 heartbeat IPC: 0.874781 cumulative IPC: 0.879404 (Simulation time: 0 hr 8 min 21 sec) 
Heartbeat CPU 0 instructions: 240000000 cycles: 96098881 heartbeat IPC: 0.887497 cumulative IPC: 0.881414 (Simulation time: 0 hr 8 min 43 sec) 
Heartbeat CPU 0 instructions: 250000001 cycles: 107472848 heartbeat IPC: 0.879201 cumulative IPC: 0.88097 (Simulation time: 0 hr 9 min 6 sec) 
Heartbeat CPU 0 instructions: 260000003 cycles: 118578397 heartbeat IPC: 0.900451 cumulative IPC: 0.884158 (Simulation time: 0 hr 9 min 28 sec) 
Heartbeat CPU 0 instructions: 270000000 cycles: 129989369 heartbeat IPC: 0.876349 cumulative IPC: 0.883034 (Simulation time: 0 hr 9 min 52 sec) 
Heartbeat CPU 0 instructions: 280000003 cycles: 141266114 heartbeat IPC: 0.886781 cumulative IPC: 0.883501 (Simulation time: 0 hr 10 min 14 sec) 
Heartbeat CPU 0 instructions: 290000000 cycles: 152613874 heartbeat IPC: 0.881231 cumulative IPC: 0.883248 (Simulation time: 0 hr 10 min 38 sec) 
Heartbeat CPU 0 instructions: 300000000 cycles: 163859813 heartbeat IPC: 0.88921 cumulative IPC: 0.883841 (Simulation time: 0 hr 11 min 1 sec) 
Heartbeat CPU 0 instructions: 310000000 cycles: 174917993 heartbeat IPC: 0.904308 cumulative IPC: 0.885663 (Simulation time: 0 hr 11 min 24 sec) 
Heartbeat CPU 0 instructions: 320000000 cycles: 186259580 heartbeat IPC: 0.881711 cumulative IPC: 0.885332 (Simulation time: 0 hr 11 min 48 sec) 
Heartbeat CPU 0 instructions: 330000000 cycles: 197351247 heartbeat IPC: 0.901578 cumulative IPC: 0.886561 (Simulation time: 0 hr 12 min 10 sec) 
Heartbeat CPU 0 instructions: 340000000 cycles: 208584266 heartbeat IPC: 0.890233 cumulative IPC: 0.886822 (Simulation time: 0 hr 12 min 33 sec) 
Heartbeat CPU 0 instructions: 350000000 cycles: 219707191 heartbeat IPC: 0.899044 cumulative IPC: 0.887627 (Simulation time: 0 hr 12 min 56 sec) 
Heartbeat CPU 0 instructions: 360000003 cycles: 230841304 heartbeat IPC: 0.898141 cumulative IPC: 0.888277 (Simulation time: 0 hr 13 min 19 sec) 
Heartbeat CPU 0 instructions: 370000002 cycles: 242077337 heartbeat IPC: 0.889994 cumulative IPC: 0.888377 (Simulation time: 0 hr 13 min 42 sec) 
Heartbeat CPU 0 instructions: 380000004 cycles: 253223239 heartbeat IPC: 0.897191 cumulative IPC: 0.888863 (Simulation time: 0 hr 14 min 5 sec) 
Heartbeat CPU 0 instructions: 390000001 cycles: 264282005 heartbeat IPC: 0.90426 cumulative IPC: 0.88966 (Simulation time: 0 hr 14 min 28 sec) 
Heartbeat CPU 0 instructions: 400000000 cycles: 275539299 heartbeat IPC: 0.888313 cumulative IPC: 0.889592 (Simulation time: 0 hr 14 min 51 sec) 
Heartbeat CPU 0 instructions: 410000001 cycles: 286606080 heartbeat IPC: 0.903605 cumulative IPC: 0.89025 (Simulation time: 0 hr 15 min 14 sec) 
Heartbeat CPU 0 instructions: 420000001 cycles: 297838586 heartbeat IPC: 0.890273 cumulative IPC: 0.890251 (Simulation time: 0 hr 15 min 36 sec) 
Heartbeat CPU 0 instructions: 430000001 cycles: 308958406 heartbeat IPC: 0.899295 cumulative IPC: 0.89064 (Simulation time: 0 hr 15 min 59 sec) 
Heartbeat CPU 0 instructions: 440000000 cycles: 320213820 heartbeat IPC: 0.888461 cumulative IPC: 0.890549 (Simulation time: 0 hr 16 min 21 sec) 
Heartbeat CPU 0 instructions: 450000000 cycles: 331391508 heartbeat IPC: 0.894639 cumulative IPC: 0.890712 (Simulation time: 0 hr 16 min 44 sec) 
Heartbeat CPU 0 instructions: 460000000 cycles: 342514404 heartbeat IPC: 0.899046 cumulative IPC: 0.89103 (Simulation time: 0 hr 17 min 6 sec) 
Heartbeat CPU 0 instructions: 470000000 cycles: 353693264 heartbeat IPC: 0.894546 cumulative IPC: 0.89116 (Simulation time: 0 hr 17 min 29 sec) 
Heartbeat CPU 0 instructions: 480000000 cycles: 364854177 heartbeat IPC: 0.895984 cumulative IPC: 0.891331 (Simulation time: 0 hr 17 min 53 sec) 
Heartbeat CPU 0 instructions: 490000001 cycles: 376093066 heartbeat IPC: 0.889768 cumulative IPC: 0.891277 (Simulation time: 0 hr 18 min 15 sec) 
Heartbeat CPU 0 instructions: 500000004 cycles: 387318991 heartbeat IPC: 0.890795 cumulative IPC: 0.891261 (Simulation time: 0 hr 18 min 37 sec) 
Heartbeat CPU 0 instructions: 510000001 cycles: 393440728 heartbeat IPC: 1.63352 cumulative IPC: 0.904519 (Simulation time: 0 hr 19 min 16 sec) 
Heartbeat CPU 0 instructions: 520000000 cycles: 397574992 heartbeat IPC: 2.41881 cumulative IPC: 0.922568 (Simulation time: 0 hr 19 min 54 sec) 
Heartbeat CPU 0 instructions: 530000001 cycles: 405959411 heartbeat IPC: 1.19269 cumulative IPC: 0.928944 (Simulation time: 0 hr 20 min 19 sec) 
Heartbeat CPU 0 instructions: 540000002 cycles: 416362213 heartbeat IPC: 0.96128 cumulative IPC: 0.929864 (Simulation time: 0 hr 20 min 41 sec) 
Heartbeat CPU 0 instructions: 550000000 cycles: 426928185 heartbeat IPC: 0.946434 cumulative IPC: 0.930329 (Simulation time: 0 hr 21 min 3 sec) 
Heartbeat CPU 0 instructions: 560000000 cycles: 437922995 heartbeat IPC: 0.90952 cumulative IPC: 0.929738 (Simulation time: 0 hr 21 min 26 sec) 
Heartbeat CPU 0 instructions: 570000003 cycles: 449130431 heartbeat IPC: 0.892265 cumulative IPC: 0.928684 (Simulation time: 0 hr 21 min 48 sec) 
Heartbeat CPU 0 instructions: 580000000 cycles: 460225997 heartbeat IPC: 0.901261 cumulative IPC: 0.927941 (Simulation time: 0 hr 22 min 11 sec) 
Heartbeat CPU 0 instructions: 590000003 cycles: 471063782 heartbeat IPC: 0.922698 cumulative IPC: 0.927806 (Simulation time: 0 hr 22 min 34 sec) 
Heartbeat CPU 0 instructions: 600000000 cycles: 481851619 heartbeat IPC: 0.92697 cumulative IPC: 0.927785 (Simulation time: 0 hr 22 min 57 sec) 
Heartbeat CPU 0 instructions: 610000002 cycles: 492672808 heartbeat IPC: 0.924113 cumulative IPC: 0.927695 (Simulation time: 0 hr 23 min 19 sec) 
Heartbeat CPU 0 instructions: 620000004 cycles: 503150651 heartbeat IPC: 0.954395 cumulative IPC: 0.928313 (Simulation time: 0 hr 23 min 42 sec) 
Heartbeat CPU 0 instructions: 630000001 cycles: 513547096 heartbeat IPC: 0.961867 cumulative IPC: 0.929067 (Simulation time: 0 hr 24 min 5 sec) 
Heartbeat CPU 0 instructions: 640000001 cycles: 523803188 heartbeat IPC: 0.97503 cumulative IPC: 0.930064 (Simulation time: 0 hr 24 min 29 sec) 
Heartbeat CPU 0 instructions: 650000000 cycles: 533955436 heartbeat IPC: 0.985003 cumulative IPC: 0.931218 (Simulation time: 0 hr 24 min 52 sec) 
Heartbeat CPU 0 instructions: 660000002 cycles: 544327225 heartbeat IPC: 0.964154 cumulative IPC: 0.93191 (Simulation time: 0 hr 25 min 15 sec) 
Heartbeat CPU 0 instructions: 670000000 cycles: 554533100 heartbeat IPC: 0.979828 cumulative IPC: 0.932881 (Simulation time: 0 hr 25 min 38 sec) 
Heartbeat CPU 0 instructions: 680000000 cycles: 564857699 heartbeat IPC: 0.968561 cumulative IPC: 0.933597 (Simulation time: 0 hr 26 min 2 sec) 
Heartbeat CPU 0 instructions: 690000001 cycles: 575124095 heartbeat IPC: 0.974052 cumulative IPC: 0.934389 (Simulation time: 0 hr 26 min 25 sec) 
Heartbeat CPU 0 instructions: 700000001 cycles: 585529199 heartbeat IPC: 0.961067 cumulative IPC: 0.934908 (Simulation time: 0 hr 26 min 48 sec) 
Finished CPU 0 instructions: 500000003 cycles: 534811966 cumulative IPC: 0.934908 (Simulation time: 0 hr 26 min 48 sec) 

ChampSim completed all CPUs

Region of Interest Statistics

CPU 0 cumulative IPC: 0.934908 instructions: 500000003 cycles: 534811966
cpu0_L1I TOTAL     ACCESS:   48815628  HIT:   48814568  MISS:       1060
cpu0_L1I LOAD      ACCESS:   48815628  HIT:   48814568  MISS:       1060
cpu0_L1I RFO       ACCESS:          0  HIT:          0  MISS:          0
cpu0_L1I PREFETCH  ACCESS:          0  HIT:          0  MISS:          0
cpu0_L1I WRITEBACK ACCESS:          0  HIT:          0  MISS:          0
cpu0_L1I TRANSLATION ACCESS:          0  HIT:          0  MISS:          0
cpu0_L1I PREFETCH  REQUESTED:          0  ISSUED:          0  USEFUL:          0  USELESS:          0
cpu0_L1I AVERAGE MISS LATENCY: 118.519 cycles
cpu0_DTLB TOTAL     ACCESS:  114443587  HIT:  114333353  MISS:     110234
cpu0_DTLB LOAD      ACCESS:   75609472  HIT:   75513503  MISS:      95969
cpu0_DTLB RFO       ACCESS:   38834115  HIT:   38819850  MISS:      14265
cpu0_DTLB PREFETCH  ACCESS:          0  HIT:          0  MISS:          0
cpu0_DTLB WRITEBACK ACCESS:          0  HIT:          0  MISS:          0
cpu0_DTLB TRANSLATION ACCESS:          0  HIT:          0  MISS:          0
cpu0_DTLB PREFETCH  REQUESTED:          0  ISSUED:          0  USEFUL:          0  USELESS:          0
cpu0_DTLB AVERAGE MISS LATENCY: 14.5654 cycles
cpu0_ITLB TOTAL     ACCESS:   41703459  HIT:   41703411  MISS:         48
cpu0_ITLB LOAD      ACCESS:   41703459  HIT:   41703411  MISS:         48
cpu0_ITLB RFO       ACCESS:          0  HIT:          0  MISS:          0
cpu0_ITLB PREFETCH  ACCESS:          0  HIT:          0  MISS:          0
cpu0_ITLB WRITEBACK ACCESS:          0  HIT:          0  MISS:          0
cpu0_ITLB TRANSLATION ACCESS:          0  HIT:          0  MISS:          0
cpu0_ITLB PREFETCH  REQUESTED:          0  ISSUED:          0  USEFUL:          0  USELESS:          0
cpu0_ITLB AVERAGE MISS LATENCY: 217.229 cycles
cpu0_STLB TOTAL     ACCESS:     110282  HIT:     107328  MISS:       2954
cpu0_STLB LOAD      ACCESS:      96017  HIT:      95864  MISS:        153
cpu0_STLB RFO       ACCESS:      14265  HIT:      11464  MISS:       2801
cpu0_STLB PREFETCH  ACCESS:          0  HIT:          0  MISS:          0
cpu0_STLB WRITEBACK ACCESS:          0  HIT:          0  MISS:          0
cpu0_STLB TRANSLATION ACCESS:          0  HIT:          0  MISS:          0
cpu0_STLB PREFETCH  REQUESTED:          0  ISSUED:          0  USEFUL:          0  USELESS:          0
cpu0_STLB AVERAGE MISS LATENCY: 211.035 cycles
cpu0_L1D TOTAL     ACCESS:  144577857  HIT:  143711830  MISS:     866027
cpu0_L1D LOAD      ACCESS:   73513799  HIT:   73392522  MISS:     121277
cpu0_L1D RFO       ACCESS:   71061116  HIT:   70316374  MISS:     744742
cpu0_L1D PREFETCH  ACCESS:          0  HIT:          0  MISS:          0
cpu0_L1D WRITEBACK ACCESS:          0  HIT:          0  MISS:          0
cpu0_L1D TRANSLATION ACCESS:       2942  HIT:       2934  MISS:          8
cpu0_L1D PREFETCH  REQUESTED:          0  ISSUED:          0  USEFUL:          0  USELESS:          0
cpu0_L1D AVERAGE MISS LATENCY: 70.8057 cycles
cpu0_L2C TOTAL     ACCESS:    1691142  HIT:    1381416  MISS:     309726
cpu0_L2C LOAD      ACCESS:     122337  HIT:      50689  MISS:      71648
cpu0_L2C RFO       ACCESS:     744742  HIT:     506664  MISS:     238078
cpu0_L2C PREFETCH  ACCESS:          0  HIT:          0  MISS:          0
cpu0_L2C WRITEBACK ACCESS:     824055  HIT:     824055  MISS:          0
cpu0_L2C TRANSLATION ACCESS:          8  HIT:          8  MISS:          0
cpu0_L2C PREFETCH  REQUESTED:          0  ISSUED:          0  USEFUL:          0  USELESS:          0
cpu0_L2C AVERAGE MISS LATENCY: 167.584 cycles
LLC TOTAL     ACCESS:     379309  HIT:      37093  MISS:     342216
LLC LOAD      ACCESS:      71648  HIT:      26447  MISS:      45201
LLC RFO       ACCESS:     238078  HIT:       7248  MISS:     230830
LLC PREFETCH  ACCESS:      69534  HIT:       3398  MISS:      66136
LLC WRITEBACK ACCESS:         49  HIT:          0  MISS:         49
LLC TRANSLATION ACCESS:          0  HIT:          0  MISS:          0
LLC PREFETCH  REQUESTED:      71648  ISSUED:      71648  USEFUL:      34073  USELESS:      42308
LLC AVERAGE MISS LATENCY: 165.092 cycles

DRAM Statistics
 CHANNEL 0
 RQ ROW_BUFFER_HIT:     192353  ROW_BUFFER_MISS:     149814
 DBUS AVG_CONGESTED_CYCLE:    3.97654
 WQ ROW_BUFFER_HIT:          0  ROW_BUFFER_MISS:          0  FULL:          0


CPU 0 Branch Prediction Accuracy: 85.9275% MPKI: 25.5021 Average ROB Occupancy at Mispredict: 13.1888
Branch type MPKI
BRANCH_DIRECT_JUMP: 0.00075
BRANCH_INDIRECT: 0.000136
BRANCH_CONDITIONAL: 25.4916
BRANCH_DIRECT_CALL: 0.001424
BRANCH_INDIRECT_CALL: 0.002828
BRANCH_RETURN: 0.00538

