/home/caslab/workspace/sim/ChampSim/bin/champsim --warmup_instructions 200000000 --simulation_instructions 500000000/ /home/caslab/workspace/sim/traces/speccpu_by_champsim447.dealII-3B.champsimtrace.xz
start simulation for 447.dealII-3B.champsimtrace.xz

*** ChampSim Multicore Out-of-Order Simulator ***

Warmup Instructions: 200000000
Simulation Instructions: 500000000
Number of CPUs: 1
Off-chip DRAM Size: 4 GiB Channels: 1 Width: 64-bit Data Rate: 3200 MT/s

VirtualMemory physical capacity: 8588881920 num_ppages: 2096895
VirtualMemory page size: 4096 log2_page_size: 12

CPU 0 runs /home/caslab/workspace/sim/traces/speccpu_by_champsim/447.dealII-3B.champsimtrace.xz
CPU 0 Bimodal branch predictor
Basic BTB sets: 1024 ways: 8 indirect buffer size: 4096 RAS size: 64
LLC next line prefetcher
WARNING: The extended signature CACHE::prefetch_line(ip, base_addr, pf_addr, fill_this_level, prefetch_metadata) is deprecated.
WARNING: Use CACHE::prefetch_line(pf_addr, fill_this_level, prefetch_metadata) instead.
Heartbeat CPU 0 instructions: 10000002 cycles: 2956875 heartbeat IPC: 3.38195 cumulative IPC: 3.38195 (Simulation time: 0 hr 0 min 29 sec) 
Heartbeat CPU 0 instructions: 20000002 cycles: 5909292 heartbeat IPC: 3.38706 cumulative IPC: 3.3845 (Simulation time: 0 hr 0 min 58 sec) 
Heartbeat CPU 0 instructions: 30000004 cycles: 8982844 heartbeat IPC: 3.25357 cumulative IPC: 3.3397 (Simulation time: 0 hr 1 min 29 sec) 
Heartbeat CPU 0 instructions: 40000001 cycles: 12254836 heartbeat IPC: 3.05624 cumulative IPC: 3.26402 (Simulation time: 0 hr 2 min 0 sec) 
Heartbeat CPU 0 instructions: 50000004 cycles: 15199937 heartbeat IPC: 3.39547 cumulative IPC: 3.28949 (Simulation time: 0 hr 2 min 30 sec) 
Heartbeat CPU 0 instructions: 60000001 cycles: 18152840 heartbeat IPC: 3.3865 cumulative IPC: 3.30527 (Simulation time: 0 hr 2 min 59 sec) 
Heartbeat CPU 0 instructions: 70000001 cycles: 21213186 heartbeat IPC: 3.2676 cumulative IPC: 3.29983 (Simulation time: 0 hr 3 min 29 sec) 
Heartbeat CPU 0 instructions: 80000003 cycles: 24134929 heartbeat IPC: 3.42262 cumulative IPC: 3.3147 (Simulation time: 0 hr 3 min 58 sec) 
Heartbeat CPU 0 instructions: 90000000 cycles: 27155101 heartbeat IPC: 3.31107 cumulative IPC: 3.31429 (Simulation time: 0 hr 4 min 27 sec) 
Heartbeat CPU 0 instructions: 100000000 cycles: 29804028 heartbeat IPC: 3.77511 cumulative IPC: 3.35525 (Simulation time: 0 hr 4 min 49 sec) 
Heartbeat CPU 0 instructions: 110000000 cycles: 32304028 heartbeat IPC: 4 cumulative IPC: 3.40515 (Simulation time: 0 hr 5 min 7 sec) 
Heartbeat CPU 0 instructions: 120000002 cycles: 34835507 heartbeat IPC: 3.95026 cumulative IPC: 3.44476 (Simulation time: 0 hr 5 min 24 sec) 
Heartbeat CPU 0 instructions: 130000002 cycles: 37335507 heartbeat IPC: 4 cumulative IPC: 3.48194 (Simulation time: 0 hr 5 min 43 sec) 
Heartbeat CPU 0 instructions: 140000002 cycles: 39835507 heartbeat IPC: 4 cumulative IPC: 3.51445 (Simulation time: 0 hr 6 min 1 sec) 
Heartbeat CPU 0 instructions: 150000002 cycles: 42366986 heartbeat IPC: 3.95026 cumulative IPC: 3.54049 (Simulation time: 0 hr 6 min 19 sec) 
Heartbeat CPU 0 instructions: 160000002 cycles: 44866986 heartbeat IPC: 4 cumulative IPC: 3.5661 (Simulation time: 0 hr 6 min 38 sec) 
Heartbeat CPU 0 instructions: 170000002 cycles: 47366986 heartbeat IPC: 4 cumulative IPC: 3.589 (Simulation time: 0 hr 6 min 55 sec) 
Heartbeat CPU 0 instructions: 180000002 cycles: 49898464 heartbeat IPC: 3.95026 cumulative IPC: 3.60733 (Simulation time: 0 hr 7 min 15 sec) 
Heartbeat CPU 0 instructions: 190000002 cycles: 52398464 heartbeat IPC: 4 cumulative IPC: 3.62606 (Simulation time: 0 hr 7 min 32 sec) 
Heartbeat CPU 0 instructions: 200000002 cycles: 54898464 heartbeat IPC: 4 cumulative IPC: 3.64309 (Simulation time: 0 hr 7 min 49 sec) 

Warmup complete CPU 0 instructions: 200000002 cycles: 54898464 (Simulation time: 0 hr 7 min 49 sec) 

Heartbeat CPU 0 instructions: 210000001 cycles: 62402726 heartbeat IPC: 1.33258 cumulative IPC: 1.33258 (Simulation time: 0 hr 8 min 9 sec) 
Heartbeat CPU 0 instructions: 220000000 cycles: 65079631 heartbeat IPC: 3.73566 cumulative IPC: 1.96441 (Simulation time: 0 hr 8 min 25 sec) 
Heartbeat CPU 0 instructions: 230000000 cycles: 69530471 heartbeat IPC: 2.24677 cumulative IPC: 2.0503 (Simulation time: 0 hr 8 min 43 sec) 
Heartbeat CPU 0 instructions: 240000003 cycles: 75260379 heartbeat IPC: 1.74523 cumulative IPC: 1.96445 (Simulation time: 0 hr 9 min 1 sec) 
Heartbeat CPU 0 instructions: 250000002 cycles: 77937285 heartbeat IPC: 3.73566 cumulative IPC: 2.17025 (Simulation time: 0 hr 9 min 17 sec) 
Heartbeat CPU 0 instructions: 260000001 cycles: 84514706 heartbeat IPC: 1.52035 cumulative IPC: 2.02592 (Simulation time: 0 hr 9 min 36 sec) 
Heartbeat CPU 0 instructions: 270000001 cycles: 88119775 heartbeat IPC: 2.77387 cumulative IPC: 2.10708 (Simulation time: 0 hr 9 min 53 sec) 
Heartbeat CPU 0 instructions: 280000000 cycles: 90796680 heartbeat IPC: 3.73566 cumulative IPC: 2.22852 (Simulation time: 0 hr 10 min 9 sec) 
Heartbeat CPU 0 instructions: 290000004 cycles: 98301034 heartbeat IPC: 1.33256 cumulative IPC: 2.07361 (Simulation time: 0 hr 10 min 28 sec) 
Heartbeat CPU 0 instructions: 300000003 cycles: 100977939 heartbeat IPC: 3.73566 cumulative IPC: 2.17016 (Simulation time: 0 hr 10 min 45 sec) 
Heartbeat CPU 0 instructions: 310000001 cycles: 104324336 heartbeat IPC: 2.98829 cumulative IPC: 2.22555 (Simulation time: 0 hr 11 min 3 sec) 
Heartbeat CPU 0 instructions: 320000002 cycles: 110757575 heartbeat IPC: 1.55443 cumulative IPC: 2.14826 (Simulation time: 0 hr 11 min 27 sec) 
Heartbeat CPU 0 instructions: 330000002 cycles: 114381271 heartbeat IPC: 2.75961 cumulative IPC: 2.18551 (Simulation time: 0 hr 12 min 1 sec) 
Heartbeat CPU 0 instructions: 340000002 cycles: 118048998 heartbeat IPC: 2.72648 cumulative IPC: 2.21693 (Simulation time: 0 hr 12 min 33 sec) 
Heartbeat CPU 0 instructions: 350000001 cycles: 129483076 heartbeat IPC: 0.874579 cumulative IPC: 2.01114 (Simulation time: 0 hr 12 min 59 sec) 
Heartbeat CPU 0 instructions: 360000002 cycles: 141362035 heartbeat IPC: 0.841825 cumulative IPC: 1.85049 (Simulation time: 0 hr 13 min 25 sec) 
Heartbeat CPU 0 instructions: 370000001 cycles: 152993832 heartbeat IPC: 0.859712 cumulative IPC: 1.73301 (Simulation time: 0 hr 13 min 51 sec) 
Heartbeat CPU 0 instructions: 380000002 cycles: 164829275 heartbeat IPC: 0.84492 cumulative IPC: 1.63739 (Simulation time: 0 hr 14 min 17 sec) 
Heartbeat CPU 0 instructions: 390000003 cycles: 176602253 heartbeat IPC: 0.849403 cumulative IPC: 1.56117 (Simulation time: 0 hr 14 min 44 sec) 
Heartbeat CPU 0 instructions: 400000003 cycles: 188436934 heartbeat IPC: 0.844974 cumulative IPC: 1.4977 (Simulation time: 0 hr 15 min 10 sec) 
Heartbeat CPU 0 instructions: 410000004 cycles: 199972614 heartbeat IPC: 0.866876 cumulative IPC: 1.44754 (Simulation time: 0 hr 15 min 35 sec) 
Heartbeat CPU 0 instructions: 420000004 cycles: 205471227 heartbeat IPC: 1.81864 cumulative IPC: 1.46109 (Simulation time: 0 hr 15 min 52 sec) 
Heartbeat CPU 0 instructions: 430000001 cycles: 217153066 heartbeat IPC: 0.856029 cumulative IPC: 1.41753 (Simulation time: 0 hr 16 min 15 sec) 
Heartbeat CPU 0 instructions: 440000000 cycles: 229032677 heartbeat IPC: 0.841778 cumulative IPC: 1.37825 (Simulation time: 0 hr 16 min 38 sec) 
Heartbeat CPU 0 instructions: 450000001 cycles: 240806288 heartbeat IPC: 0.849357 cumulative IPC: 1.34475 (Simulation time: 0 hr 17 min 1 sec) 
Heartbeat CPU 0 instructions: 460000000 cycles: 253056475 heartbeat IPC: 0.816314 cumulative IPC: 1.31208 (Simulation time: 0 hr 17 min 24 sec) 
Heartbeat CPU 0 instructions: 470000001 cycles: 272210827 heartbeat IPC: 0.522075 cumulative IPC: 1.24245 (Simulation time: 0 hr 17 min 47 sec) 
Heartbeat CPU 0 instructions: 480000002 cycles: 294620943 heartbeat IPC: 0.446227 cumulative IPC: 1.16802 (Simulation time: 0 hr 18 min 12 sec) 
Heartbeat CPU 0 instructions: 490000000 cycles: 316088038 heartbeat IPC: 0.465829 cumulative IPC: 1.1103 (Simulation time: 0 hr 18 min 36 sec) 
Heartbeat CPU 0 instructions: 500000000 cycles: 337784267 heartbeat IPC: 0.46091 cumulative IPC: 1.0605 (Simulation time: 0 hr 19 min 1 sec) 
Heartbeat CPU 0 instructions: 510000000 cycles: 359594795 heartbeat IPC: 0.458494 cumulative IPC: 1.01741 (Simulation time: 0 hr 19 min 25 sec) 
Heartbeat CPU 0 instructions: 520000000 cycles: 381639304 heartbeat IPC: 0.453628 cumulative IPC: 0.979369 (Simulation time: 0 hr 19 min 50 sec) 
Heartbeat CPU 0 instructions: 530000000 cycles: 404486255 heartbeat IPC: 0.437695 cumulative IPC: 0.943969 (Simulation time: 0 hr 20 min 14 sec) 
Heartbeat CPU 0 instructions: 540000002 cycles: 426530402 heartbeat IPC: 0.453635 cumulative IPC: 0.914884 (Simulation time: 0 hr 20 min 39 sec) 
Heartbeat CPU 0 instructions: 550000000 cycles: 449059406 heartbeat IPC: 0.443872 cumulative IPC: 0.887962 (Simulation time: 0 hr 21 min 4 sec) 
Heartbeat CPU 0 instructions: 560000002 cycles: 469857600 heartbeat IPC: 0.480811 cumulative IPC: 0.867555 (Simulation time: 0 hr 21 min 27 sec) 
Heartbeat CPU 0 instructions: 570000000 cycles: 490981130 heartbeat IPC: 0.473406 cumulative IPC: 0.848463 (Simulation time: 0 hr 21 min 52 sec) 
Heartbeat CPU 0 instructions: 580000001 cycles: 512825657 heartbeat IPC: 0.457781 cumulative IPC: 0.829826 (Simulation time: 0 hr 22 min 16 sec) 
Heartbeat CPU 0 instructions: 590000000 cycles: 535029014 heartbeat IPC: 0.450382 cumulative IPC: 0.812279 (Simulation time: 0 hr 22 min 40 sec) 
Heartbeat CPU 0 instructions: 600000000 cycles: 556522899 heartbeat IPC: 0.465249 cumulative IPC: 0.797409 (Simulation time: 0 hr 23 min 4 sec) 
Heartbeat CPU 0 instructions: 610000002 cycles: 578623532 heartbeat IPC: 0.452476 cumulative IPC: 0.782853 (Simulation time: 0 hr 23 min 29 sec) 
Heartbeat CPU 0 instructions: 620000000 cycles: 600247678 heartbeat IPC: 0.462446 cumulative IPC: 0.770149 (Simulation time: 0 hr 23 min 53 sec) 
Heartbeat CPU 0 instructions: 630000000 cycles: 621833708 heartbeat IPC: 0.463263 cumulative IPC: 0.758464 (Simulation time: 0 hr 24 min 17 sec) 
Heartbeat CPU 0 instructions: 640000000 cycles: 643227007 heartbeat IPC: 0.467436 cumulative IPC: 0.747881 (Simulation time: 0 hr 24 min 42 sec) 
Heartbeat CPU 0 instructions: 650000001 cycles: 665408670 heartbeat IPC: 0.450823 cumulative IPC: 0.737088 (Simulation time: 0 hr 25 min 7 sec) 
Heartbeat CPU 0 instructions: 660000002 cycles: 687603855 heartbeat IPC: 0.450548 cumulative IPC: 0.727037 (Simulation time: 0 hr 25 min 32 sec) 
Heartbeat CPU 0 instructions: 670000001 cycles: 709936731 heartbeat IPC: 0.44777 cumulative IPC: 0.717515 (Simulation time: 0 hr 25 min 56 sec) 
Heartbeat CPU 0 instructions: 680000002 cycles: 732142073 heartbeat IPC: 0.450342 cumulative IPC: 0.708755 (Simulation time: 0 hr 26 min 21 sec) 
Heartbeat CPU 0 instructions: 690000000 cycles: 754231630 heartbeat IPC: 0.452703 cumulative IPC: 0.700667 (Simulation time: 0 hr 26 min 46 sec) 
Heartbeat CPU 0 instructions: 700000001 cycles: 776144023 heartbeat IPC: 0.456363 cumulative IPC: 0.693245 (Simulation time: 0 hr 27 min 10 sec) 
Finished CPU 0 instructions: 500000000 cycles: 721245560 cumulative IPC: 0.693245 (Simulation time: 0 hr 27 min 10 sec) 

ChampSim completed all CPUs

Region of Interest Statistics

CPU 0 cumulative IPC: 0.693245 instructions: 500000000 cycles: 721245560
cpu0_L1I TOTAL     ACCESS:   15116180  HIT:   15114871  MISS:       1309
cpu0_L1I LOAD      ACCESS:   15116180  HIT:   15114871  MISS:       1309
cpu0_L1I RFO       ACCESS:          0  HIT:          0  MISS:          0
cpu0_L1I PREFETCH  ACCESS:          0  HIT:          0  MISS:          0
cpu0_L1I WRITEBACK ACCESS:          0  HIT:          0  MISS:          0
cpu0_L1I TRANSLATION ACCESS:          0  HIT:          0  MISS:          0
cpu0_L1I PREFETCH  REQUESTED:          0  ISSUED:          0  USEFUL:          0  USELESS:          0
cpu0_L1I AVERAGE MISS LATENCY: 105.023 cycles
cpu0_DTLB TOTAL     ACCESS:  124864661  HIT:  124859520  MISS:       5141
cpu0_DTLB LOAD      ACCESS:  101936021  HIT:  101932739  MISS:       3282
cpu0_DTLB RFO       ACCESS:   22928640  HIT:   22926781  MISS:       1859
cpu0_DTLB PREFETCH  ACCESS:          0  HIT:          0  MISS:          0
cpu0_DTLB WRITEBACK ACCESS:          0  HIT:          0  MISS:          0
cpu0_DTLB TRANSLATION ACCESS:          0  HIT:          0  MISS:          0
cpu0_DTLB PREFETCH  REQUESTED:          0  ISSUED:          0  USEFUL:          0  USELESS:          0
cpu0_DTLB AVERAGE MISS LATENCY: 56.9092 cycles
cpu0_ITLB TOTAL     ACCESS:   69958960  HIT:   69958867  MISS:         93
cpu0_ITLB LOAD      ACCESS:   69958960  HIT:   69958867  MISS:         93
cpu0_ITLB RFO       ACCESS:          0  HIT:          0  MISS:          0
cpu0_ITLB PREFETCH  ACCESS:          0  HIT:          0  MISS:          0
cpu0_ITLB WRITEBACK ACCESS:          0  HIT:          0  MISS:          0
cpu0_ITLB TRANSLATION ACCESS:          0  HIT:          0  MISS:          0
cpu0_ITLB PREFETCH  REQUESTED:          0  ISSUED:          0  USEFUL:          0  USELESS:          0
cpu0_ITLB AVERAGE MISS LATENCY: 217.097 cycles
cpu0_STLB TOTAL     ACCESS:       5234  HIT:       3956  MISS:       1278
cpu0_STLB LOAD      ACCESS:       3375  HIT:       3267  MISS:        108
cpu0_STLB RFO       ACCESS:       1859  HIT:        689  MISS:       1170
cpu0_STLB PREFETCH  ACCESS:          0  HIT:          0  MISS:          0
cpu0_STLB WRITEBACK ACCESS:          0  HIT:          0  MISS:          0
cpu0_STLB TRANSLATION ACCESS:          0  HIT:          0  MISS:          0
cpu0_STLB PREFETCH  REQUESTED:          0  ISSUED:          0  USEFUL:          0  USELESS:          0
cpu0_STLB AVERAGE MISS LATENCY: 207.864 cycles
cpu0_L1D TOTAL     ACCESS:  141616113  HIT:  141466423  MISS:     149690
cpu0_L1D LOAD      ACCESS:  107415640  HIT:  107345463  MISS:      70177
cpu0_L1D RFO       ACCESS:   34199196  HIT:   34119684  MISS:      79512
cpu0_L1D PREFETCH  ACCESS:          0  HIT:          0  MISS:          0
cpu0_L1D WRITEBACK ACCESS:          0  HIT:          0  MISS:          0
cpu0_L1D TRANSLATION ACCESS:       1277  HIT:       1276  MISS:          1
cpu0_L1D PREFETCH  REQUESTED:          0  ISSUED:          0  USEFUL:          0  USELESS:          0
cpu0_L1D AVERAGE MISS LATENCY: 65.7543 cycles
cpu0_L2C TOTAL     ACCESS:     246909  HIT:     169664  MISS:      77245
cpu0_L2C LOAD      ACCESS:      71486  HIT:      69649  MISS:       1837
cpu0_L2C RFO       ACCESS:      79512  HIT:       4104  MISS:      75408
cpu0_L2C PREFETCH  ACCESS:          0  HIT:          0  MISS:          0
cpu0_L2C WRITEBACK ACCESS:      95910  HIT:      95910  MISS:          0
cpu0_L2C TRANSLATION ACCESS:          1  HIT:          1  MISS:          0
cpu0_L2C PREFETCH  REQUESTED:          0  ISSUED:          0  USEFUL:          0  USELESS:          0
cpu0_L2C AVERAGE MISS LATENCY: 107.694 cycles
LLC TOTAL     ACCESS:      78597  HIT:       1030  MISS:      77567
LLC LOAD      ACCESS:       1837  HIT:        809  MISS:       1028
LLC RFO       ACCESS:      75408  HIT:         34  MISS:      75374
LLC PREFETCH  ACCESS:       1352  HIT:        187  MISS:       1165
LLC WRITEBACK ACCESS:          0  HIT:          0  MISS:          0
LLC TRANSLATION ACCESS:          0  HIT:          0  MISS:          0
LLC PREFETCH  REQUESTED:       1837  ISSUED:       1837  USEFUL:       1192  USELESS:        655
LLC AVERAGE MISS LATENCY: 88.1468 cycles

DRAM Statistics
 CHANNEL 0
 RQ ROW_BUFFER_HIT:      66183  ROW_BUFFER_MISS:      11384
 DBUS AVG_CONGESTED_CYCLE:    3.97453
 WQ ROW_BUFFER_HIT:          0  ROW_BUFFER_MISS:          0  FULL:          0


CPU 0 Branch Prediction Accuracy: 77.701% MPKI: 46.5064 Average ROB Occupancy at Mispredict: 7.99471
Branch type MPKI
BRANCH_DIRECT_JUMP: 0.000588
BRANCH_INDIRECT: 0.008794
BRANCH_CONDITIONAL: 46.4945
BRANCH_DIRECT_CALL: 0.001282
BRANCH_INDIRECT_CALL: 0.000174
BRANCH_RETURN: 0.00103

