/home/caslab/workspace/sim/ChampSim/bin/champsim --warmup_instructions 200000000 --simulation_instructions 500000000/ /home/caslab/workspace/sim/traces/speccpu_by_champsim450.soplex-247B.champsimtrace.xz
start simulation for 450.soplex-247B.champsimtrace.xz

*** ChampSim Multicore Out-of-Order Simulator ***

Warmup Instructions: 200000000
Simulation Instructions: 500000000
Number of CPUs: 1
Off-chip DRAM Size: 4 GiB Channels: 1 Width: 64-bit Data Rate: 3200 MT/s

VirtualMemory physical capacity: 8588881920 num_ppages: 2096895
VirtualMemory page size: 4096 log2_page_size: 12

CPU 0 runs /home/caslab/workspace/sim/traces/speccpu_by_champsim/450.soplex-247B.champsimtrace.xz
CPU 0 Bimodal branch predictor
Basic BTB sets: 1024 ways: 8 indirect buffer size: 4096 RAS size: 64
LLC next line prefetcher
WARNING: The extended signature CACHE::prefetch_line(ip, base_addr, pf_addr, fill_this_level, prefetch_metadata) is deprecated.
WARNING: Use CACHE::prefetch_line(pf_addr, fill_this_level, prefetch_metadata) instead.
Heartbeat CPU 0 instructions: 10000000 cycles: 3571132 heartbeat IPC: 2.80023 cumulative IPC: 2.80023 (Simulation time: 0 hr 0 min 35 sec) 
Heartbeat CPU 0 instructions: 20000000 cycles: 6833232 heartbeat IPC: 3.06551 cumulative IPC: 2.92687 (Simulation time: 0 hr 1 min 3 sec) 
Heartbeat CPU 0 instructions: 30000000 cycles: 10086782 heartbeat IPC: 3.07357 cumulative IPC: 2.97419 (Simulation time: 0 hr 1 min 31 sec) 
Heartbeat CPU 0 instructions: 40000000 cycles: 13313422 heartbeat IPC: 3.0992 cumulative IPC: 3.00449 (Simulation time: 0 hr 1 min 59 sec) 
Heartbeat CPU 0 instructions: 50000004 cycles: 16538983 heartbeat IPC: 3.10024 cumulative IPC: 3.02316 (Simulation time: 0 hr 2 min 27 sec) 
Heartbeat CPU 0 instructions: 60000000 cycles: 19765432 heartbeat IPC: 3.09938 cumulative IPC: 3.0356 (Simulation time: 0 hr 2 min 55 sec) 
Heartbeat CPU 0 instructions: 70000000 cycles: 22955013 heartbeat IPC: 3.13521 cumulative IPC: 3.04944 (Simulation time: 0 hr 3 min 22 sec) 
Heartbeat CPU 0 instructions: 80000000 cycles: 26193765 heartbeat IPC: 3.08761 cumulative IPC: 3.05416 (Simulation time: 0 hr 3 min 51 sec) 
Heartbeat CPU 0 instructions: 90000004 cycles: 29465636 heartbeat IPC: 3.05636 cumulative IPC: 3.05441 (Simulation time: 0 hr 4 min 19 sec) 
Heartbeat CPU 0 instructions: 100000004 cycles: 32739827 heartbeat IPC: 3.05419 cumulative IPC: 3.05438 (Simulation time: 0 hr 4 min 48 sec) 
Heartbeat CPU 0 instructions: 110000001 cycles: 36006381 heartbeat IPC: 3.06133 cumulative IPC: 3.05501 (Simulation time: 0 hr 5 min 19 sec) 
Heartbeat CPU 0 instructions: 120000001 cycles: 39595176 heartbeat IPC: 2.78645 cumulative IPC: 3.03067 (Simulation time: 0 hr 5 min 53 sec) 
Heartbeat CPU 0 instructions: 130000002 cycles: 42765529 heartbeat IPC: 3.15422 cumulative IPC: 3.03983 (Simulation time: 0 hr 6 min 21 sec) 
Heartbeat CPU 0 instructions: 140000001 cycles: 45879720 heartbeat IPC: 3.21111 cumulative IPC: 3.05146 (Simulation time: 0 hr 6 min 47 sec) 
Heartbeat CPU 0 instructions: 150000001 cycles: 48994950 heartbeat IPC: 3.21004 cumulative IPC: 3.06154 (Simulation time: 0 hr 7 min 14 sec) 
Heartbeat CPU 0 instructions: 160000003 cycles: 52060759 heartbeat IPC: 3.26178 cumulative IPC: 3.07333 (Simulation time: 0 hr 7 min 40 sec) 
Heartbeat CPU 0 instructions: 170000004 cycles: 55256148 heartbeat IPC: 3.12951 cumulative IPC: 3.07658 (Simulation time: 0 hr 8 min 7 sec) 
Heartbeat CPU 0 instructions: 180000003 cycles: 58435562 heartbeat IPC: 3.14523 cumulative IPC: 3.08032 (Simulation time: 0 hr 8 min 34 sec) 
Heartbeat CPU 0 instructions: 190000000 cycles: 61573831 heartbeat IPC: 3.18647 cumulative IPC: 3.08573 (Simulation time: 0 hr 9 min 0 sec) 
Heartbeat CPU 0 instructions: 200000000 cycles: 64736090 heartbeat IPC: 3.1623 cumulative IPC: 3.08947 (Simulation time: 0 hr 9 min 27 sec) 

Warmup complete CPU 0 instructions: 200000002 cycles: 64736091 (Simulation time: 0 hr 9 min 27 sec) 

Heartbeat CPU 0 instructions: 210000001 cycles: 74007032 heartbeat IPC: 1.07864 cumulative IPC: 1.07864 (Simulation time: 0 hr 9 min 54 sec) 
Heartbeat CPU 0 instructions: 220000003 cycles: 83688000 heartbeat IPC: 1.03295 cumulative IPC: 1.0553 (Simulation time: 0 hr 10 min 22 sec) 
Heartbeat CPU 0 instructions: 230000002 cycles: 91242154 heartbeat IPC: 1.32377 cumulative IPC: 1.13182 (Simulation time: 0 hr 10 min 48 sec) 
Heartbeat CPU 0 instructions: 240000000 cycles: 98689324 heartbeat IPC: 1.34279 cumulative IPC: 1.17809 (Simulation time: 0 hr 11 min 13 sec) 
Heartbeat CPU 0 instructions: 250000000 cycles: 106029074 heartbeat IPC: 1.36244 cumulative IPC: 1.21086 (Simulation time: 0 hr 11 min 38 sec) 
Heartbeat CPU 0 instructions: 260000000 cycles: 113242587 heartbeat IPC: 1.38629 cumulative IPC: 1.23695 (Simulation time: 0 hr 12 min 2 sec) 
Heartbeat CPU 0 instructions: 270000000 cycles: 120441632 heartbeat IPC: 1.38907 cumulative IPC: 1.25661 (Simulation time: 0 hr 12 min 27 sec) 
Heartbeat CPU 0 instructions: 280000004 cycles: 128048147 heartbeat IPC: 1.31466 cumulative IPC: 1.26358 (Simulation time: 0 hr 12 min 50 sec) 
Heartbeat CPU 0 instructions: 290000000 cycles: 135800023 heartbeat IPC: 1.29001 cumulative IPC: 1.26647 (Simulation time: 0 hr 13 min 13 sec) 
Heartbeat CPU 0 instructions: 300000000 cycles: 143526068 heartbeat IPC: 1.29432 cumulative IPC: 1.2692 (Simulation time: 0 hr 13 min 36 sec) 
Heartbeat CPU 0 instructions: 310000002 cycles: 151434518 heartbeat IPC: 1.26447 cumulative IPC: 1.26877 (Simulation time: 0 hr 14 min 0 sec) 
Heartbeat CPU 0 instructions: 320000000 cycles: 160105542 heartbeat IPC: 1.15327 cumulative IPC: 1.25826 (Simulation time: 0 hr 14 min 29 sec) 
Heartbeat CPU 0 instructions: 330000003 cycles: 169991241 heartbeat IPC: 1.01156 cumulative IPC: 1.23509 (Simulation time: 0 hr 14 min 58 sec) 
Heartbeat CPU 0 instructions: 340000004 cycles: 177333451 heartbeat IPC: 1.36199 cumulative IPC: 1.24337 (Simulation time: 0 hr 15 min 23 sec) 
Heartbeat CPU 0 instructions: 350000000 cycles: 184795447 heartbeat IPC: 1.34012 cumulative IPC: 1.24938 (Simulation time: 0 hr 15 min 46 sec) 
Heartbeat CPU 0 instructions: 360000004 cycles: 192125699 heartbeat IPC: 1.36421 cumulative IPC: 1.25599 (Simulation time: 0 hr 16 min 10 sec) 
Heartbeat CPU 0 instructions: 370000002 cycles: 199460243 heartbeat IPC: 1.36341 cumulative IPC: 1.26184 (Simulation time: 0 hr 16 min 33 sec) 
Heartbeat CPU 0 instructions: 380000004 cycles: 206791228 heartbeat IPC: 1.36407 cumulative IPC: 1.26711 (Simulation time: 0 hr 16 min 56 sec) 
Heartbeat CPU 0 instructions: 390000000 cycles: 214126091 heartbeat IPC: 1.36335 cumulative IPC: 1.27184 (Simulation time: 0 hr 17 min 19 sec) 
Heartbeat CPU 0 instructions: 400000004 cycles: 221462694 heartbeat IPC: 1.36303 cumulative IPC: 1.27611 (Simulation time: 0 hr 17 min 43 sec) 
Heartbeat CPU 0 instructions: 410000001 cycles: 228800199 heartbeat IPC: 1.36286 cumulative IPC: 1.27999 (Simulation time: 0 hr 18 min 6 sec) 
Heartbeat CPU 0 instructions: 420000000 cycles: 236136088 heartbeat IPC: 1.36316 cumulative IPC: 1.28355 (Simulation time: 0 hr 18 min 29 sec) 
Heartbeat CPU 0 instructions: 430000004 cycles: 243469528 heartbeat IPC: 1.36362 cumulative IPC: 1.28683 (Simulation time: 0 hr 18 min 52 sec) 
Heartbeat CPU 0 instructions: 440000003 cycles: 253568401 heartbeat IPC: 0.990209 cumulative IPC: 1.27097 (Simulation time: 0 hr 19 min 23 sec) 
Heartbeat CPU 0 instructions: 450000003 cycles: 261927721 heartbeat IPC: 1.19627 cumulative IPC: 1.2678 (Simulation time: 0 hr 19 min 51 sec) 
Heartbeat CPU 0 instructions: 460000000 cycles: 269347872 heartbeat IPC: 1.34768 cumulative IPC: 1.2707 (Simulation time: 0 hr 20 min 15 sec) 
Heartbeat CPU 0 instructions: 470000002 cycles: 276674131 heartbeat IPC: 1.36495 cumulative IPC: 1.27396 (Simulation time: 0 hr 20 min 38 sec) 
Heartbeat CPU 0 instructions: 480000001 cycles: 283990206 heartbeat IPC: 1.36685 cumulative IPC: 1.27706 (Simulation time: 0 hr 21 min 1 sec) 
Heartbeat CPU 0 instructions: 490000004 cycles: 291308222 heartbeat IPC: 1.36649 cumulative IPC: 1.27995 (Simulation time: 0 hr 21 min 25 sec) 
Heartbeat CPU 0 instructions: 500000000 cycles: 298631687 heartbeat IPC: 1.36547 cumulative IPC: 1.28262 (Simulation time: 0 hr 21 min 49 sec) 
Heartbeat CPU 0 instructions: 510000003 cycles: 305955349 heartbeat IPC: 1.36544 cumulative IPC: 1.28514 (Simulation time: 0 hr 22 min 13 sec) 
Heartbeat CPU 0 instructions: 520000002 cycles: 313278494 heartbeat IPC: 1.36553 cumulative IPC: 1.28751 (Simulation time: 0 hr 22 min 36 sec) 
Heartbeat CPU 0 instructions: 530000000 cycles: 320601960 heartbeat IPC: 1.36547 cumulative IPC: 1.28974 (Simulation time: 0 hr 22 min 59 sec) 
Heartbeat CPU 0 instructions: 540000004 cycles: 327926269 heartbeat IPC: 1.36532 cumulative IPC: 1.29184 (Simulation time: 0 hr 23 min 23 sec) 
Heartbeat CPU 0 instructions: 550000000 cycles: 335274856 heartbeat IPC: 1.36081 cumulative IPC: 1.29371 (Simulation time: 0 hr 23 min 47 sec) 
Heartbeat CPU 0 instructions: 560000001 cycles: 346550058 heartbeat IPC: 0.886902 cumulative IPC: 1.27744 (Simulation time: 0 hr 24 min 16 sec) 
Heartbeat CPU 0 instructions: 570000004 cycles: 353616677 heartbeat IPC: 1.4151 cumulative IPC: 1.28081 (Simulation time: 0 hr 24 min 45 sec) 
Heartbeat CPU 0 instructions: 580000001 cycles: 361278133 heartbeat IPC: 1.30523 cumulative IPC: 1.28144 (Simulation time: 0 hr 25 min 9 sec) 
Heartbeat CPU 0 instructions: 590000000 cycles: 368773478 heartbeat IPC: 1.33416 cumulative IPC: 1.28274 (Simulation time: 0 hr 25 min 32 sec) 
Heartbeat CPU 0 instructions: 600000003 cycles: 376276781 heartbeat IPC: 1.33275 cumulative IPC: 1.28394 (Simulation time: 0 hr 25 min 56 sec) 
Heartbeat CPU 0 instructions: 610000000 cycles: 383782517 heartbeat IPC: 1.33231 cumulative IPC: 1.28508 (Simulation time: 0 hr 26 min 19 sec) 
Heartbeat CPU 0 instructions: 620000003 cycles: 391312986 heartbeat IPC: 1.32794 cumulative IPC: 1.28607 (Simulation time: 0 hr 26 min 44 sec) 
Heartbeat CPU 0 instructions: 630000001 cycles: 398780512 heartbeat IPC: 1.33913 cumulative IPC: 1.28725 (Simulation time: 0 hr 27 min 9 sec) 
Heartbeat CPU 0 instructions: 640000003 cycles: 406375169 heartbeat IPC: 1.31672 cumulative IPC: 1.28791 (Simulation time: 0 hr 27 min 32 sec) 
Heartbeat CPU 0 instructions: 650000001 cycles: 413945565 heartbeat IPC: 1.32093 cumulative IPC: 1.28862 (Simulation time: 0 hr 27 min 57 sec) 
Heartbeat CPU 0 instructions: 660000004 cycles: 421356233 heartbeat IPC: 1.34941 cumulative IPC: 1.28989 (Simulation time: 0 hr 28 min 22 sec) 
Heartbeat CPU 0 instructions: 670000003 cycles: 428965147 heartbeat IPC: 1.31425 cumulative IPC: 1.2904 (Simulation time: 0 hr 28 min 47 sec) 
Heartbeat CPU 0 instructions: 680000000 cycles: 440784402 heartbeat IPC: 0.846077 cumulative IPC: 1.27643 (Simulation time: 0 hr 29 min 35 sec) 
Heartbeat CPU 0 instructions: 690000004 cycles: 450351207 heartbeat IPC: 1.04528 cumulative IPC: 1.2707 (Simulation time: 0 hr 30 min 4 sec) 
Heartbeat CPU 0 instructions: 700000001 cycles: 457738555 heartbeat IPC: 1.35367 cumulative IPC: 1.27226 (Simulation time: 0 hr 30 min 28 sec) 
Finished CPU 0 instructions: 500000004 cycles: 393002465 cumulative IPC: 1.27226 (Simulation time: 0 hr 30 min 28 sec) 

ChampSim completed all CPUs

Region of Interest Statistics

CPU 0 cumulative IPC: 1.27226 instructions: 500000004 cycles: 393002465
cpu0_L1I TOTAL     ACCESS:    2708863  HIT:    2708822  MISS:         41
cpu0_L1I LOAD      ACCESS:    2708863  HIT:    2708822  MISS:         41
cpu0_L1I RFO       ACCESS:          0  HIT:          0  MISS:          0
cpu0_L1I PREFETCH  ACCESS:          0  HIT:          0  MISS:          0
cpu0_L1I WRITEBACK ACCESS:          0  HIT:          0  MISS:          0
cpu0_L1I TRANSLATION ACCESS:          0  HIT:          0  MISS:          0
cpu0_L1I PREFETCH  REQUESTED:          0  ISSUED:          0  USEFUL:          0  USELESS:          0
cpu0_L1I AVERAGE MISS LATENCY: 136.902 cycles
cpu0_DTLB TOTAL     ACCESS:  117330006  HIT:  115862037  MISS:    1467969
cpu0_DTLB LOAD      ACCESS:   92940083  HIT:   91724655  MISS:    1215428
cpu0_DTLB RFO       ACCESS:   24389923  HIT:   24137382  MISS:     252541
cpu0_DTLB PREFETCH  ACCESS:          0  HIT:          0  MISS:          0
cpu0_DTLB WRITEBACK ACCESS:          0  HIT:          0  MISS:          0
cpu0_DTLB TRANSLATION ACCESS:          0  HIT:          0  MISS:          0
cpu0_DTLB PREFETCH  REQUESTED:          0  ISSUED:          0  USEFUL:          0  USELESS:          0
cpu0_DTLB AVERAGE MISS LATENCY: 9.85052 cycles
cpu0_ITLB TOTAL     ACCESS:   41416956  HIT:   41416953  MISS:          3
cpu0_ITLB LOAD      ACCESS:   41416956  HIT:   41416953  MISS:          3
cpu0_ITLB RFO       ACCESS:          0  HIT:          0  MISS:          0
cpu0_ITLB PREFETCH  ACCESS:          0  HIT:          0  MISS:          0
cpu0_ITLB WRITEBACK ACCESS:          0  HIT:          0  MISS:          0
cpu0_ITLB TRANSLATION ACCESS:          0  HIT:          0  MISS:          0
cpu0_ITLB PREFETCH  REQUESTED:          0  ISSUED:          0  USEFUL:          0  USELESS:          0
cpu0_ITLB AVERAGE MISS LATENCY: 224.333 cycles
cpu0_STLB TOTAL     ACCESS:    1467972  HIT:    1442005  MISS:      25967
cpu0_STLB LOAD      ACCESS:    1215431  HIT:    1194295  MISS:      21136
cpu0_STLB RFO       ACCESS:     252541  HIT:     247710  MISS:       4831
cpu0_STLB PREFETCH  ACCESS:          0  HIT:          0  MISS:          0
cpu0_STLB WRITEBACK ACCESS:          0  HIT:          0  MISS:          0
cpu0_STLB TRANSLATION ACCESS:          0  HIT:          0  MISS:          0
cpu0_STLB PREFETCH  REQUESTED:          0  ISSUED:          0  USEFUL:          0  USELESS:          0
cpu0_STLB AVERAGE MISS LATENCY: 44.1123 cycles
cpu0_L1D TOTAL     ACCESS:  109493620  HIT:   96085446  MISS:   13408174
cpu0_L1D LOAD      ACCESS:   79930348  HIT:   68709309  MISS:   11221039
cpu0_L1D RFO       ACCESS:   29537545  HIT:   27350871  MISS:    2186674
cpu0_L1D PREFETCH  ACCESS:          0  HIT:          0  MISS:          0
cpu0_L1D WRITEBACK ACCESS:          0  HIT:          0  MISS:          0
cpu0_L1D TRANSLATION ACCESS:      25727  HIT:      25266  MISS:        461
cpu0_L1D PREFETCH  REQUESTED:          0  ISSUED:          0  USEFUL:          0  USELESS:          0
cpu0_L1D AVERAGE MISS LATENCY: 15.4316 cycles
cpu0_L2C TOTAL     ACCESS:   17578872  HIT:   17479553  MISS:      99319
cpu0_L2C LOAD      ACCESS:   11221012  HIT:   11127353  MISS:      93659
cpu0_L2C RFO       ACCESS:    2186674  HIT:    2181014  MISS:       5660
cpu0_L2C PREFETCH  ACCESS:          0  HIT:          0  MISS:          0
cpu0_L2C WRITEBACK ACCESS:    4170725  HIT:    4170725  MISS:          0
cpu0_L2C TRANSLATION ACCESS:        461  HIT:        461  MISS:          0
cpu0_L2C PREFETCH  REQUESTED:          0  ISSUED:          0  USEFUL:          0  USELESS:          0
cpu0_L2C AVERAGE MISS LATENCY: 580.778 cycles
LLC TOTAL     ACCESS:     119052  HIT:       7038  MISS:     112014
LLC LOAD      ACCESS:      93659  HIT:       2165  MISS:      91494
LLC RFO       ACCESS:       5660  HIT:        843  MISS:       4817
LLC PREFETCH  ACCESS:      18120  HIT:       3365  MISS:      14755
LLC WRITEBACK ACCESS:       1613  HIT:        665  MISS:        948
LLC TRANSLATION ACCESS:          0  HIT:          0  MISS:          0
LLC PREFETCH  REQUESTED:      93659  ISSUED:      93659  USEFUL:      39104  USELESS:      13802
LLC AVERAGE MISS LATENCY: 293.353 cycles

DRAM Statistics
 CHANNEL 0
 RQ ROW_BUFFER_HIT:      33108  ROW_BUFFER_MISS:      77958
 DBUS AVG_CONGESTED_CYCLE:     3.9177
 WQ ROW_BUFFER_HIT:        111  ROW_BUFFER_MISS:        457  FULL:          0


CPU 0 Branch Prediction Accuracy: 92.2676% MPKI: 13.8225 Average ROB Occupancy at Mispredict: 38.9905
Branch type MPKI
BRANCH_DIRECT_JUMP: 3.4e-05
BRANCH_INDIRECT: 2.2e-05
BRANCH_CONDITIONAL: 13.8218
BRANCH_DIRECT_CALL: 3e-05
BRANCH_INDIRECT_CALL: 4.2e-05
BRANCH_RETURN: 0.00053

