/home/caslab/workspace/sim/ChampSim/bin/champsim --warmup_instructions 200000000 --simulation_instructions 500000000/ /home/caslab/workspace/sim/traces/speccpu_by_champsim453.povray-887B.champsimtrace.xz
start simulation for 453.povray-887B.champsimtrace.xz

*** ChampSim Multicore Out-of-Order Simulator ***

Warmup Instructions: 200000000
Simulation Instructions: 500000000
Number of CPUs: 1
Off-chip DRAM Size: 4 GiB Channels: 1 Width: 64-bit Data Rate: 3200 MT/s

VirtualMemory physical capacity: 8588881920 num_ppages: 2096895
VirtualMemory page size: 4096 log2_page_size: 12

CPU 0 runs /home/caslab/workspace/sim/traces/speccpu_by_champsim/453.povray-887B.champsimtrace.xz
CPU 0 Bimodal branch predictor
Basic BTB sets: 1024 ways: 8 indirect buffer size: 4096 RAS size: 64
LLC next line prefetcher
WARNING: The extended signature CACHE::prefetch_line(ip, base_addr, pf_addr, fill_this_level, prefetch_metadata) is deprecated.
WARNING: Use CACHE::prefetch_line(pf_addr, fill_this_level, prefetch_metadata) instead.
Heartbeat CPU 0 instructions: 10000001 cycles: 2500328 heartbeat IPC: 3.99948 cumulative IPC: 3.99948 (Simulation time: 0 hr 0 min 22 sec) 
Heartbeat CPU 0 instructions: 20000001 cycles: 5000328 heartbeat IPC: 4 cumulative IPC: 3.99974 (Simulation time: 0 hr 0 min 45 sec) 
Heartbeat CPU 0 instructions: 30000001 cycles: 7500328 heartbeat IPC: 4 cumulative IPC: 3.99983 (Simulation time: 0 hr 1 min 7 sec) 
Heartbeat CPU 0 instructions: 40000001 cycles: 10000328 heartbeat IPC: 4 cumulative IPC: 3.99987 (Simulation time: 0 hr 1 min 30 sec) 
Heartbeat CPU 0 instructions: 50000001 cycles: 12500328 heartbeat IPC: 4 cumulative IPC: 3.9999 (Simulation time: 0 hr 1 min 52 sec) 
Heartbeat CPU 0 instructions: 60000001 cycles: 15000328 heartbeat IPC: 4 cumulative IPC: 3.99991 (Simulation time: 0 hr 2 min 15 sec) 
Heartbeat CPU 0 instructions: 70000001 cycles: 17500328 heartbeat IPC: 4 cumulative IPC: 3.99993 (Simulation time: 0 hr 2 min 37 sec) 
Heartbeat CPU 0 instructions: 80000001 cycles: 20000328 heartbeat IPC: 4 cumulative IPC: 3.99993 (Simulation time: 0 hr 3 min 0 sec) 
Heartbeat CPU 0 instructions: 90000001 cycles: 22500328 heartbeat IPC: 4 cumulative IPC: 3.99994 (Simulation time: 0 hr 3 min 22 sec) 
Heartbeat CPU 0 instructions: 100000001 cycles: 25000328 heartbeat IPC: 4 cumulative IPC: 3.99995 (Simulation time: 0 hr 3 min 45 sec) 
Heartbeat CPU 0 instructions: 110000001 cycles: 27500328 heartbeat IPC: 4 cumulative IPC: 3.99995 (Simulation time: 0 hr 4 min 5 sec) 
Heartbeat CPU 0 instructions: 120000001 cycles: 30000328 heartbeat IPC: 4 cumulative IPC: 3.99996 (Simulation time: 0 hr 4 min 27 sec) 
Heartbeat CPU 0 instructions: 130000001 cycles: 32500328 heartbeat IPC: 4 cumulative IPC: 3.99996 (Simulation time: 0 hr 4 min 49 sec) 
Heartbeat CPU 0 instructions: 140000001 cycles: 35000328 heartbeat IPC: 4 cumulative IPC: 3.99996 (Simulation time: 0 hr 5 min 12 sec) 
Heartbeat CPU 0 instructions: 150000001 cycles: 37500328 heartbeat IPC: 4 cumulative IPC: 3.99996 (Simulation time: 0 hr 5 min 34 sec) 
Heartbeat CPU 0 instructions: 160000001 cycles: 40000328 heartbeat IPC: 4 cumulative IPC: 3.99997 (Simulation time: 0 hr 5 min 56 sec) 
Heartbeat CPU 0 instructions: 170000003 cycles: 42501638 heartbeat IPC: 3.99791 cumulative IPC: 3.99985 (Simulation time: 0 hr 6 min 18 sec) 
Heartbeat CPU 0 instructions: 180000003 cycles: 45001638 heartbeat IPC: 4 cumulative IPC: 3.99985 (Simulation time: 0 hr 6 min 40 sec) 
Heartbeat CPU 0 instructions: 190000003 cycles: 47501638 heartbeat IPC: 4 cumulative IPC: 3.99986 (Simulation time: 0 hr 7 min 3 sec) 
Heartbeat CPU 0 instructions: 200000003 cycles: 50001638 heartbeat IPC: 4 cumulative IPC: 3.99987 (Simulation time: 0 hr 7 min 25 sec) 

Warmup complete CPU 0 instructions: 200000003 cycles: 50001638 (Simulation time: 0 hr 7 min 25 sec) 

Heartbeat CPU 0 instructions: 210000000 cycles: 57531881 heartbeat IPC: 1.32798 cumulative IPC: 1.32798 (Simulation time: 0 hr 7 min 50 sec) 
Heartbeat CPU 0 instructions: 220000001 cycles: 65055278 heartbeat IPC: 1.32919 cumulative IPC: 1.32858 (Simulation time: 0 hr 8 min 15 sec) 
Heartbeat CPU 0 instructions: 230000000 cycles: 72558642 heartbeat IPC: 1.33274 cumulative IPC: 1.32996 (Simulation time: 0 hr 8 min 40 sec) 
Heartbeat CPU 0 instructions: 240000001 cycles: 80082904 heartbeat IPC: 1.32903 cumulative IPC: 1.32973 (Simulation time: 0 hr 9 min 6 sec) 
Heartbeat CPU 0 instructions: 250000001 cycles: 87607974 heartbeat IPC: 1.32889 cumulative IPC: 1.32956 (Simulation time: 0 hr 9 min 31 sec) 
Heartbeat CPU 0 instructions: 260000002 cycles: 95149130 heartbeat IPC: 1.32606 cumulative IPC: 1.32898 (Simulation time: 0 hr 9 min 56 sec) 
Heartbeat CPU 0 instructions: 270000001 cycles: 102715788 heartbeat IPC: 1.32159 cumulative IPC: 1.32792 (Simulation time: 0 hr 10 min 21 sec) 
Heartbeat CPU 0 instructions: 280000001 cycles: 110302167 heartbeat IPC: 1.31815 cumulative IPC: 1.32669 (Simulation time: 0 hr 10 min 46 sec) 
Heartbeat CPU 0 instructions: 290000001 cycles: 117891436 heartbeat IPC: 1.31765 cumulative IPC: 1.32568 (Simulation time: 0 hr 11 min 11 sec) 
Heartbeat CPU 0 instructions: 300000000 cycles: 125496943 heartbeat IPC: 1.31484 cumulative IPC: 1.32459 (Simulation time: 0 hr 11 min 36 sec) 
Heartbeat CPU 0 instructions: 310000002 cycles: 133186640 heartbeat IPC: 1.30044 cumulative IPC: 1.32235 (Simulation time: 0 hr 12 min 2 sec) 
Heartbeat CPU 0 instructions: 320000000 cycles: 141003452 heartbeat IPC: 1.27929 cumulative IPC: 1.31866 (Simulation time: 0 hr 12 min 27 sec) 
Heartbeat CPU 0 instructions: 330000001 cycles: 148923889 heartbeat IPC: 1.26256 cumulative IPC: 1.31416 (Simulation time: 0 hr 12 min 53 sec) 
Heartbeat CPU 0 instructions: 340000001 cycles: 156874968 heartbeat IPC: 1.25769 cumulative IPC: 1.30996 (Simulation time: 0 hr 13 min 18 sec) 
Heartbeat CPU 0 instructions: 350000000 cycles: 164893877 heartbeat IPC: 1.24705 cumulative IPC: 1.30557 (Simulation time: 0 hr 13 min 43 sec) 
Heartbeat CPU 0 instructions: 360000004 cycles: 172932809 heartbeat IPC: 1.24395 cumulative IPC: 1.30154 (Simulation time: 0 hr 14 min 8 sec) 
Heartbeat CPU 0 instructions: 370000000 cycles: 180976090 heartbeat IPC: 1.24327 cumulative IPC: 1.29796 (Simulation time: 0 hr 14 min 33 sec) 
Heartbeat CPU 0 instructions: 380000002 cycles: 189012203 heartbeat IPC: 1.24438 cumulative IPC: 1.29487 (Simulation time: 0 hr 14 min 59 sec) 
Heartbeat CPU 0 instructions: 390000001 cycles: 197044614 heartbeat IPC: 1.24496 cumulative IPC: 1.29214 (Simulation time: 0 hr 15 min 25 sec) 
Heartbeat CPU 0 instructions: 400000002 cycles: 205063355 heartbeat IPC: 1.24708 cumulative IPC: 1.28981 (Simulation time: 0 hr 15 min 50 sec) 
Heartbeat CPU 0 instructions: 410000001 cycles: 213076510 heartbeat IPC: 1.24795 cumulative IPC: 1.28775 (Simulation time: 0 hr 16 min 16 sec) 
Heartbeat CPU 0 instructions: 420000000 cycles: 221094163 heartbeat IPC: 1.24725 cumulative IPC: 1.28585 (Simulation time: 0 hr 16 min 42 sec) 
Heartbeat CPU 0 instructions: 430000003 cycles: 229126730 heartbeat IPC: 1.24493 cumulative IPC: 1.28402 (Simulation time: 0 hr 17 min 7 sec) 
Heartbeat CPU 0 instructions: 440000004 cycles: 237185289 heartbeat IPC: 1.24092 cumulative IPC: 1.28216 (Simulation time: 0 hr 17 min 32 sec) 
Heartbeat CPU 0 instructions: 450000000 cycles: 245259619 heartbeat IPC: 1.23849 cumulative IPC: 1.28036 (Simulation time: 0 hr 17 min 57 sec) 
Heartbeat CPU 0 instructions: 460000004 cycles: 253376897 heartbeat IPC: 1.23194 cumulative IPC: 1.27842 (Simulation time: 0 hr 18 min 22 sec) 
Heartbeat CPU 0 instructions: 470000000 cycles: 261530873 heartbeat IPC: 1.2264 cumulative IPC: 1.27642 (Simulation time: 0 hr 18 min 47 sec) 
Heartbeat CPU 0 instructions: 480000001 cycles: 269709607 heartbeat IPC: 1.22268 cumulative IPC: 1.27442 (Simulation time: 0 hr 19 min 12 sec) 
Heartbeat CPU 0 instructions: 490000002 cycles: 277931742 heartbeat IPC: 1.21623 cumulative IPC: 1.27232 (Simulation time: 0 hr 19 min 38 sec) 
Heartbeat CPU 0 instructions: 500000001 cycles: 286201136 heartbeat IPC: 1.20928 cumulative IPC: 1.27011 (Simulation time: 0 hr 20 min 3 sec) 
Heartbeat CPU 0 instructions: 510000003 cycles: 294528118 heartbeat IPC: 1.20092 cumulative IPC: 1.26776 (Simulation time: 0 hr 20 min 28 sec) 
Heartbeat CPU 0 instructions: 520000002 cycles: 302873188 heartbeat IPC: 1.19831 cumulative IPC: 1.26546 (Simulation time: 0 hr 20 min 53 sec) 
Heartbeat CPU 0 instructions: 530000000 cycles: 311214164 heartbeat IPC: 1.1989 cumulative IPC: 1.26334 (Simulation time: 0 hr 21 min 19 sec) 
Heartbeat CPU 0 instructions: 540000000 cycles: 319522289 heartbeat IPC: 1.20364 cumulative IPC: 1.2615 (Simulation time: 0 hr 21 min 44 sec) 
Heartbeat CPU 0 instructions: 550000000 cycles: 327831949 heartbeat IPC: 1.20342 cumulative IPC: 1.25976 (Simulation time: 0 hr 22 min 9 sec) 
Heartbeat CPU 0 instructions: 560000000 cycles: 336081963 heartbeat IPC: 1.21212 cumulative IPC: 1.25839 (Simulation time: 0 hr 22 min 35 sec) 
Heartbeat CPU 0 instructions: 570000003 cycles: 344131127 heartbeat IPC: 1.24237 cumulative IPC: 1.25795 (Simulation time: 0 hr 23 min 1 sec) 
Heartbeat CPU 0 instructions: 580000001 cycles: 352039626 heartbeat IPC: 1.26446 cumulative IPC: 1.25812 (Simulation time: 0 hr 23 min 26 sec) 
Heartbeat CPU 0 instructions: 590000002 cycles: 359979419 heartbeat IPC: 1.25948 cumulative IPC: 1.25815 (Simulation time: 0 hr 23 min 52 sec) 
Heartbeat CPU 0 instructions: 600000001 cycles: 367994894 heartbeat IPC: 1.24759 cumulative IPC: 1.25789 (Simulation time: 0 hr 24 min 17 sec) 
Heartbeat CPU 0 instructions: 610000000 cycles: 376023703 heartbeat IPC: 1.24551 cumulative IPC: 1.25758 (Simulation time: 0 hr 24 min 42 sec) 
Heartbeat CPU 0 instructions: 620000003 cycles: 384059594 heartbeat IPC: 1.24442 cumulative IPC: 1.25727 (Simulation time: 0 hr 25 min 8 sec) 
Heartbeat CPU 0 instructions: 630000001 cycles: 392124572 heartbeat IPC: 1.23993 cumulative IPC: 1.25686 (Simulation time: 0 hr 25 min 33 sec) 
Heartbeat CPU 0 instructions: 640000004 cycles: 400090449 heartbeat IPC: 1.25535 cumulative IPC: 1.25682 (Simulation time: 0 hr 25 min 59 sec) 
Heartbeat CPU 0 instructions: 650000004 cycles: 407970900 heartbeat IPC: 1.26896 cumulative IPC: 1.25709 (Simulation time: 0 hr 26 min 26 sec) 
Heartbeat CPU 0 instructions: 660000000 cycles: 415783881 heartbeat IPC: 1.27992 cumulative IPC: 1.25758 (Simulation time: 0 hr 26 min 52 sec) 
Heartbeat CPU 0 instructions: 670000004 cycles: 423562163 heartbeat IPC: 1.28563 cumulative IPC: 1.25816 (Simulation time: 0 hr 27 min 18 sec) 
Heartbeat CPU 0 instructions: 680000001 cycles: 431336791 heartbeat IPC: 1.28623 cumulative IPC: 1.25874 (Simulation time: 0 hr 27 min 44 sec) 
Heartbeat CPU 0 instructions: 690000002 cycles: 439267598 heartbeat IPC: 1.26091 cumulative IPC: 1.25878 (Simulation time: 0 hr 28 min 10 sec) 
Heartbeat CPU 0 instructions: 700000002 cycles: 447401861 heartbeat IPC: 1.22937 cumulative IPC: 1.25818 (Simulation time: 0 hr 28 min 36 sec) 
Finished CPU 0 instructions: 500000004 cycles: 397400224 cumulative IPC: 1.25818 (Simulation time: 0 hr 28 min 36 sec) 

ChampSim completed all CPUs

Region of Interest Statistics

CPU 0 cumulative IPC: 1.25818 instructions: 500000004 cycles: 397400224
cpu0_L1I TOTAL     ACCESS:   39996713  HIT:   39996421  MISS:        292
cpu0_L1I LOAD      ACCESS:   39996713  HIT:   39996421  MISS:        292
cpu0_L1I RFO       ACCESS:          0  HIT:          0  MISS:          0
cpu0_L1I PREFETCH  ACCESS:          0  HIT:          0  MISS:          0
cpu0_L1I WRITEBACK ACCESS:          0  HIT:          0  MISS:          0
cpu0_L1I TRANSLATION ACCESS:          0  HIT:          0  MISS:          0
cpu0_L1I PREFETCH  REQUESTED:          0  ISSUED:          0  USEFUL:          0  USELESS:          0
cpu0_L1I AVERAGE MISS LATENCY: 112.325 cycles
cpu0_DTLB TOTAL     ACCESS:  106801311  HIT:  106797953  MISS:       3358
cpu0_DTLB LOAD      ACCESS:   72207113  HIT:   72204629  MISS:       2484
cpu0_DTLB RFO       ACCESS:   34594198  HIT:   34593324  MISS:        874
cpu0_DTLB PREFETCH  ACCESS:          0  HIT:          0  MISS:          0
cpu0_DTLB WRITEBACK ACCESS:          0  HIT:          0  MISS:          0
cpu0_DTLB TRANSLATION ACCESS:          0  HIT:          0  MISS:          0
cpu0_DTLB PREFETCH  REQUESTED:          0  ISSUED:          0  USEFUL:          0  USELESS:          0
cpu0_DTLB AVERAGE MISS LATENCY: 10.2496 cycles
cpu0_ITLB TOTAL     ACCESS:   39713500  HIT:   39713495  MISS:          5
cpu0_ITLB LOAD      ACCESS:   39713500  HIT:   39713495  MISS:          5
cpu0_ITLB RFO       ACCESS:          0  HIT:          0  MISS:          0
cpu0_ITLB PREFETCH  ACCESS:          0  HIT:          0  MISS:          0
cpu0_ITLB WRITEBACK ACCESS:          0  HIT:          0  MISS:          0
cpu0_ITLB TRANSLATION ACCESS:          0  HIT:          0  MISS:          0
cpu0_ITLB PREFETCH  REQUESTED:          0  ISSUED:          0  USEFUL:          0  USELESS:          0
cpu0_ITLB AVERAGE MISS LATENCY: 217 cycles
cpu0_STLB TOTAL     ACCESS:       3363  HIT:       3337  MISS:         26
cpu0_STLB LOAD      ACCESS:       2489  HIT:       2470  MISS:         19
cpu0_STLB RFO       ACCESS:        874  HIT:        867  MISS:          7
cpu0_STLB PREFETCH  ACCESS:          0  HIT:          0  MISS:          0
cpu0_STLB WRITEBACK ACCESS:          0  HIT:          0  MISS:          0
cpu0_STLB TRANSLATION ACCESS:          0  HIT:          0  MISS:          0
cpu0_STLB PREFETCH  REQUESTED:          0  ISSUED:          0  USEFUL:          0  USELESS:          0
cpu0_STLB AVERAGE MISS LATENCY: 201.385 cycles
cpu0_L1D TOTAL     ACCESS:  150567938  HIT:  150566868  MISS:       1070
cpu0_L1D LOAD      ACCESS:   78871771  HIT:   78870790  MISS:        981
cpu0_L1D RFO       ACCESS:   71696141  HIT:   71696052  MISS:         89
cpu0_L1D PREFETCH  ACCESS:          0  HIT:          0  MISS:          0
cpu0_L1D WRITEBACK ACCESS:          0  HIT:          0  MISS:          0
cpu0_L1D TRANSLATION ACCESS:         26  HIT:         26  MISS:          0
cpu0_L1D PREFETCH  REQUESTED:          0  ISSUED:          0  USEFUL:          0  USELESS:          0
cpu0_L1D AVERAGE MISS LATENCY: 132.091 cycles
cpu0_L2C TOTAL     ACCESS:       1362  HIT:          0  MISS:       1362
cpu0_L2C LOAD      ACCESS:       1273  HIT:          0  MISS:       1273
cpu0_L2C RFO       ACCESS:         89  HIT:          0  MISS:         89
cpu0_L2C PREFETCH  ACCESS:          0  HIT:          0  MISS:          0
cpu0_L2C WRITEBACK ACCESS:          0  HIT:          0  MISS:          0
cpu0_L2C TRANSLATION ACCESS:          0  HIT:          0  MISS:          0
cpu0_L2C PREFETCH  REQUESTED:          0  ISSUED:          0  USEFUL:          0  USELESS:          0
cpu0_L2C AVERAGE MISS LATENCY: 116.773 cycles
LLC TOTAL     ACCESS:       2231  HIT:        663  MISS:       1568
LLC LOAD      ACCESS:       1273  HIT:        410  MISS:        863
LLC RFO       ACCESS:         89  HIT:          0  MISS:         89
LLC PREFETCH  ACCESS:        869  HIT:        253  MISS:        616
LLC WRITEBACK ACCESS:          0  HIT:          0  MISS:          0
LLC TRANSLATION ACCESS:          0  HIT:          0  MISS:          0
LLC PREFETCH  REQUESTED:       1273  ISSUED:       1273  USEFUL:        483  USELESS:          0
LLC AVERAGE MISS LATENCY: 134.784 cycles

DRAM Statistics
 CHANNEL 0
 RQ ROW_BUFFER_HIT:        518  ROW_BUFFER_MISS:       1050
 DBUS AVG_CONGESTED_CYCLE:    3.78393
 WQ ROW_BUFFER_HIT:          0  ROW_BUFFER_MISS:          0  FULL:          0


CPU 0 Branch Prediction Accuracy: 92.3524% MPKI: 11.449 Average ROB Occupancy at Mispredict: 47.8432
Branch type MPKI
BRANCH_DIRECT_JUMP: 0.00014
BRANCH_INDIRECT: 0.01555
BRANCH_CONDITIONAL: 9.91846
BRANCH_DIRECT_CALL: 0.000102
BRANCH_INDIRECT_CALL: 0.669912
BRANCH_RETURN: 0.844824

