/home/caslab/workspace/sim/ChampSim/bin/champsim --warmup_instructions 200000000 --simulation_instructions 500000000/ /home/caslab/workspace/sim/traces/speccpu_by_champsim454.calculix-460B.champsimtrace.xz
start simulation for 454.calculix-460B.champsimtrace.xz

*** ChampSim Multicore Out-of-Order Simulator ***

Warmup Instructions: 200000000
Simulation Instructions: 500000000
Number of CPUs: 1
Off-chip DRAM Size: 4 GiB Channels: 1 Width: 64-bit Data Rate: 3200 MT/s

VirtualMemory physical capacity: 8588881920 num_ppages: 2096895
VirtualMemory page size: 4096 log2_page_size: 12

CPU 0 runs /home/caslab/workspace/sim/traces/speccpu_by_champsim/454.calculix-460B.champsimtrace.xz
CPU 0 Bimodal branch predictor
Basic BTB sets: 1024 ways: 8 indirect buffer size: 4096 RAS size: 64
LLC next line prefetcher
WARNING: The extended signature CACHE::prefetch_line(ip, base_addr, pf_addr, fill_this_level, prefetch_metadata) is deprecated.
WARNING: Use CACHE::prefetch_line(pf_addr, fill_this_level, prefetch_metadata) instead.
Heartbeat CPU 0 instructions: 10000002 cycles: 2511197 heartbeat IPC: 3.98217 cumulative IPC: 3.98217 (Simulation time: 0 hr 0 min 19 sec) 
Heartbeat CPU 0 instructions: 20000000 cycles: 5015901 heartbeat IPC: 3.99249 cumulative IPC: 3.98732 (Simulation time: 0 hr 0 min 37 sec) 
Heartbeat CPU 0 instructions: 30000003 cycles: 7523584 heartbeat IPC: 3.98775 cumulative IPC: 3.98746 (Simulation time: 0 hr 0 min 55 sec) 
Heartbeat CPU 0 instructions: 40000000 cycles: 10032078 heartbeat IPC: 3.98645 cumulative IPC: 3.98721 (Simulation time: 0 hr 1 min 13 sec) 
Heartbeat CPU 0 instructions: 50000000 cycles: 12540825 heartbeat IPC: 3.98605 cumulative IPC: 3.98698 (Simulation time: 0 hr 1 min 32 sec) 
Heartbeat CPU 0 instructions: 60000003 cycles: 15053622 heartbeat IPC: 3.97963 cumulative IPC: 3.98575 (Simulation time: 0 hr 1 min 50 sec) 
Heartbeat CPU 0 instructions: 70000002 cycles: 17828575 heartbeat IPC: 3.60366 cumulative IPC: 3.92628 (Simulation time: 0 hr 2 min 13 sec) 
Heartbeat CPU 0 instructions: 80000000 cycles: 20706407 heartbeat IPC: 3.47484 cumulative IPC: 3.86354 (Simulation time: 0 hr 2 min 38 sec) 
Heartbeat CPU 0 instructions: 90000002 cycles: 23277110 heartbeat IPC: 3.88999 cumulative IPC: 3.86646 (Simulation time: 0 hr 2 min 56 sec) 
Heartbeat CPU 0 instructions: 100000000 cycles: 25779231 heartbeat IPC: 3.99661 cumulative IPC: 3.87909 (Simulation time: 0 hr 3 min 14 sec) 
Heartbeat CPU 0 instructions: 110000001 cycles: 28285600 heartbeat IPC: 3.98984 cumulative IPC: 3.8889 (Simulation time: 0 hr 3 min 31 sec) 
Heartbeat CPU 0 instructions: 120000003 cycles: 30790916 heartbeat IPC: 3.99151 cumulative IPC: 3.89725 (Simulation time: 0 hr 3 min 49 sec) 
Heartbeat CPU 0 instructions: 130000002 cycles: 33296529 heartbeat IPC: 3.99104 cumulative IPC: 3.90431 (Simulation time: 0 hr 4 min 7 sec) 
Heartbeat CPU 0 instructions: 140000002 cycles: 35801922 heartbeat IPC: 3.99139 cumulative IPC: 3.9104 (Simulation time: 0 hr 4 min 24 sec) 
Heartbeat CPU 0 instructions: 150000001 cycles: 38305342 heartbeat IPC: 3.99453 cumulative IPC: 3.9159 (Simulation time: 0 hr 4 min 42 sec) 
Heartbeat CPU 0 instructions: 160000002 cycles: 40810748 heartbeat IPC: 3.99137 cumulative IPC: 3.92054 (Simulation time: 0 hr 5 min 0 sec) 
Heartbeat CPU 0 instructions: 170000000 cycles: 43318568 heartbeat IPC: 3.98753 cumulative IPC: 3.92441 (Simulation time: 0 hr 5 min 17 sec) 
Heartbeat CPU 0 instructions: 180000001 cycles: 45826616 heartbeat IPC: 3.98716 cumulative IPC: 3.92785 (Simulation time: 0 hr 5 min 35 sec) 
Heartbeat CPU 0 instructions: 190000000 cycles: 48334730 heartbeat IPC: 3.98706 cumulative IPC: 3.93092 (Simulation time: 0 hr 5 min 53 sec) 
Heartbeat CPU 0 instructions: 200000002 cycles: 50848501 heartbeat IPC: 3.97809 cumulative IPC: 3.93325 (Simulation time: 0 hr 6 min 11 sec) 

Warmup complete CPU 0 instructions: 200000002 cycles: 50848501 (Simulation time: 0 hr 6 min 11 sec) 

Heartbeat CPU 0 instructions: 210000000 cycles: 54422435 heartbeat IPC: 2.79804 cumulative IPC: 2.79804 (Simulation time: 0 hr 6 min 30 sec) 
Heartbeat CPU 0 instructions: 220000000 cycles: 57728683 heartbeat IPC: 3.02458 cumulative IPC: 2.9069 (Simulation time: 0 hr 6 min 48 sec) 
Heartbeat CPU 0 instructions: 230000001 cycles: 60892380 heartbeat IPC: 3.16086 cumulative IPC: 2.98689 (Simulation time: 0 hr 7 min 5 sec) 
Heartbeat CPU 0 instructions: 240000001 cycles: 64176181 heartbeat IPC: 3.04525 cumulative IPC: 3.00127 (Simulation time: 0 hr 7 min 23 sec) 
Heartbeat CPU 0 instructions: 250000003 cycles: 67441489 heartbeat IPC: 3.0625 cumulative IPC: 3.01332 (Simulation time: 0 hr 7 min 41 sec) 
Heartbeat CPU 0 instructions: 260000000 cycles: 70673663 heartbeat IPC: 3.09389 cumulative IPC: 3.02646 (Simulation time: 0 hr 7 min 58 sec) 
Heartbeat CPU 0 instructions: 270000000 cycles: 73948169 heartbeat IPC: 3.0539 cumulative IPC: 3.03035 (Simulation time: 0 hr 8 min 16 sec) 
Heartbeat CPU 0 instructions: 280000002 cycles: 76894923 heartbeat IPC: 3.39357 cumulative IPC: 3.07144 (Simulation time: 0 hr 8 min 36 sec) 
Heartbeat CPU 0 instructions: 290000002 cycles: 79967036 heartbeat IPC: 3.25509 cumulative IPC: 3.09081 (Simulation time: 0 hr 8 min 57 sec) 
Heartbeat CPU 0 instructions: 300000000 cycles: 83096046 heartbeat IPC: 3.1959 cumulative IPC: 3.10101 (Simulation time: 0 hr 9 min 16 sec) 
Heartbeat CPU 0 instructions: 310000001 cycles: 86227013 heartbeat IPC: 3.1939 cumulative IPC: 3.10923 (Simulation time: 0 hr 9 min 34 sec) 
Heartbeat CPU 0 instructions: 320000003 cycles: 89358938 heartbeat IPC: 3.19293 cumulative IPC: 3.11604 (Simulation time: 0 hr 9 min 53 sec) 
Heartbeat CPU 0 instructions: 330000002 cycles: 92532061 heartbeat IPC: 3.15147 cumulative IPC: 3.11874 (Simulation time: 0 hr 10 min 10 sec) 
Heartbeat CPU 0 instructions: 340000001 cycles: 95686215 heartbeat IPC: 3.17042 cumulative IPC: 3.12237 (Simulation time: 0 hr 10 min 28 sec) 
Heartbeat CPU 0 instructions: 350000000 cycles: 98805146 heartbeat IPC: 3.20623 cumulative IPC: 3.12783 (Simulation time: 0 hr 10 min 46 sec) 
Heartbeat CPU 0 instructions: 360000000 cycles: 101922656 heartbeat IPC: 3.20769 cumulative IPC: 3.1327 (Simulation time: 0 hr 11 min 4 sec) 
Heartbeat CPU 0 instructions: 370000004 cycles: 105036811 heartbeat IPC: 3.21115 cumulative IPC: 3.13721 (Simulation time: 0 hr 11 min 22 sec) 
Heartbeat CPU 0 instructions: 380000003 cycles: 108154851 heartbeat IPC: 3.20714 cumulative IPC: 3.14101 (Simulation time: 0 hr 11 min 40 sec) 
Heartbeat CPU 0 instructions: 390000001 cycles: 111285337 heartbeat IPC: 3.19439 cumulative IPC: 3.14378 (Simulation time: 0 hr 11 min 58 sec) 
Heartbeat CPU 0 instructions: 400000001 cycles: 114409568 heartbeat IPC: 3.20079 cumulative IPC: 3.14658 (Simulation time: 0 hr 12 min 16 sec) 
Heartbeat CPU 0 instructions: 410000000 cycles: 117534044 heartbeat IPC: 3.20054 cumulative IPC: 3.14911 (Simulation time: 0 hr 12 min 34 sec) 
Heartbeat CPU 0 instructions: 420000004 cycles: 120731188 heartbeat IPC: 3.12779 cumulative IPC: 3.14813 (Simulation time: 0 hr 12 min 52 sec) 
Heartbeat CPU 0 instructions: 430000003 cycles: 124040869 heartbeat IPC: 3.02144 cumulative IPC: 3.1424 (Simulation time: 0 hr 13 min 10 sec) 
Heartbeat CPU 0 instructions: 440000000 cycles: 127490859 heartbeat IPC: 2.89856 cumulative IPC: 3.13143 (Simulation time: 0 hr 13 min 28 sec) 
Heartbeat CPU 0 instructions: 450000004 cycles: 130673843 heartbeat IPC: 3.14171 cumulative IPC: 3.13184 (Simulation time: 0 hr 13 min 45 sec) 
Heartbeat CPU 0 instructions: 460000001 cycles: 133927891 heartbeat IPC: 3.07309 cumulative IPC: 3.12954 (Simulation time: 0 hr 14 min 3 sec) 
Heartbeat CPU 0 instructions: 470000001 cycles: 137194987 heartbeat IPC: 3.06082 cumulative IPC: 3.12694 (Simulation time: 0 hr 14 min 21 sec) 
Heartbeat CPU 0 instructions: 480000000 cycles: 140416804 heartbeat IPC: 3.10384 cumulative IPC: 3.12611 (Simulation time: 0 hr 14 min 40 sec) 
Heartbeat CPU 0 instructions: 490000003 cycles: 143613171 heartbeat IPC: 3.12855 cumulative IPC: 3.12619 (Simulation time: 0 hr 14 min 58 sec) 
Heartbeat CPU 0 instructions: 500000003 cycles: 146571651 heartbeat IPC: 3.38011 cumulative IPC: 3.13404 (Simulation time: 0 hr 15 min 18 sec) 
Heartbeat CPU 0 instructions: 510000002 cycles: 149704921 heartbeat IPC: 3.19155 cumulative IPC: 3.13586 (Simulation time: 0 hr 15 min 37 sec) 
Heartbeat CPU 0 instructions: 520000002 cycles: 152834325 heartbeat IPC: 3.1955 cumulative IPC: 3.13769 (Simulation time: 0 hr 15 min 55 sec) 
Heartbeat CPU 0 instructions: 530000001 cycles: 155967509 heartbeat IPC: 3.19164 cumulative IPC: 3.1393 (Simulation time: 0 hr 16 min 13 sec) 
Heartbeat CPU 0 instructions: 540000001 cycles: 159100683 heartbeat IPC: 3.19165 cumulative IPC: 3.14081 (Simulation time: 0 hr 16 min 31 sec) 
Heartbeat CPU 0 instructions: 550000004 cycles: 162230549 heartbeat IPC: 3.19503 cumulative IPC: 3.14234 (Simulation time: 0 hr 16 min 50 sec) 
Heartbeat CPU 0 instructions: 560000000 cycles: 165403076 heartbeat IPC: 3.15206 cumulative IPC: 3.14261 (Simulation time: 0 hr 17 min 8 sec) 
Heartbeat CPU 0 instructions: 570000002 cycles: 168554420 heartbeat IPC: 3.17325 cumulative IPC: 3.14343 (Simulation time: 0 hr 17 min 27 sec) 
Heartbeat CPU 0 instructions: 580000002 cycles: 171672974 heartbeat IPC: 3.20661 cumulative IPC: 3.14506 (Simulation time: 0 hr 17 min 45 sec) 
Heartbeat CPU 0 instructions: 590000000 cycles: 174791351 heartbeat IPC: 3.2068 cumulative IPC: 3.14661 (Simulation time: 0 hr 18 min 2 sec) 
Heartbeat CPU 0 instructions: 600000001 cycles: 177909988 heartbeat IPC: 3.20653 cumulative IPC: 3.14808 (Simulation time: 0 hr 18 min 20 sec) 
Heartbeat CPU 0 instructions: 610000001 cycles: 181023502 heartbeat IPC: 3.21181 cumulative IPC: 3.14961 (Simulation time: 0 hr 18 min 38 sec) 
Heartbeat CPU 0 instructions: 620000000 cycles: 184154929 heartbeat IPC: 3.19343 cumulative IPC: 3.15064 (Simulation time: 0 hr 18 min 57 sec) 
Heartbeat CPU 0 instructions: 630000003 cycles: 187279272 heartbeat IPC: 3.20067 cumulative IPC: 3.15178 (Simulation time: 0 hr 19 min 15 sec) 
Heartbeat CPU 0 instructions: 640000001 cycles: 190403345 heartbeat IPC: 3.20095 cumulative IPC: 3.15288 (Simulation time: 0 hr 19 min 33 sec) 
Heartbeat CPU 0 instructions: 650000002 cycles: 193685999 heartbeat IPC: 3.04632 cumulative IPC: 3.15043 (Simulation time: 0 hr 19 min 51 sec) 
Heartbeat CPU 0 instructions: 660000001 cycles: 197038044 heartbeat IPC: 2.98325 cumulative IPC: 3.1466 (Simulation time: 0 hr 20 min 8 sec) 
Heartbeat CPU 0 instructions: 670000001 cycles: 200335908 heartbeat IPC: 3.03227 cumulative IPC: 3.14408 (Simulation time: 0 hr 20 min 26 sec) 
Heartbeat CPU 0 instructions: 680000004 cycles: 203497080 heartbeat IPC: 3.16338 cumulative IPC: 3.14448 (Simulation time: 0 hr 20 min 44 sec) 
Heartbeat CPU 0 instructions: 690000001 cycles: 206796748 heartbeat IPC: 3.03061 cumulative IPC: 3.14207 (Simulation time: 0 hr 21 min 2 sec) 
Heartbeat CPU 0 instructions: 700000003 cycles: 210040248 heartbeat IPC: 3.08309 cumulative IPC: 3.14087 (Simulation time: 0 hr 21 min 19 sec) 
Finished CPU 0 instructions: 500000001 cycles: 159191747 cumulative IPC: 3.14087 (Simulation time: 0 hr 21 min 19 sec) 

ChampSim completed all CPUs

Region of Interest Statistics

CPU 0 cumulative IPC: 3.14087 instructions: 500000001 cycles: 159191747
cpu0_L1I TOTAL     ACCESS:      36653  HIT:      36653  MISS:          0
cpu0_L1I LOAD      ACCESS:      36653  HIT:      36653  MISS:          0
cpu0_L1I RFO       ACCESS:          0  HIT:          0  MISS:          0
cpu0_L1I PREFETCH  ACCESS:          0  HIT:          0  MISS:          0
cpu0_L1I WRITEBACK ACCESS:          0  HIT:          0  MISS:          0
cpu0_L1I TRANSLATION ACCESS:          0  HIT:          0  MISS:          0
cpu0_L1I PREFETCH  REQUESTED:          0  ISSUED:          0  USEFUL:          0  USELESS:          0
cpu0_L1I AVERAGE MISS LATENCY: -nan cycles
cpu0_DTLB TOTAL     ACCESS:   62540922  HIT:   62527955  MISS:      12967
cpu0_DTLB LOAD      ACCESS:   58081330  HIT:   58069002  MISS:      12328
cpu0_DTLB RFO       ACCESS:    4459592  HIT:    4458953  MISS:        639
cpu0_DTLB PREFETCH  ACCESS:          0  HIT:          0  MISS:          0
cpu0_DTLB WRITEBACK ACCESS:          0  HIT:          0  MISS:          0
cpu0_DTLB TRANSLATION ACCESS:          0  HIT:          0  MISS:          0
cpu0_DTLB PREFETCH  REQUESTED:          0  ISSUED:          0  USEFUL:          0  USELESS:          0
cpu0_DTLB AVERAGE MISS LATENCY: 19.8095 cycles
cpu0_ITLB TOTAL     ACCESS:   34038787  HIT:   34038787  MISS:          0
cpu0_ITLB LOAD      ACCESS:   34038787  HIT:   34038787  MISS:          0
cpu0_ITLB RFO       ACCESS:          0  HIT:          0  MISS:          0
cpu0_ITLB PREFETCH  ACCESS:          0  HIT:          0  MISS:          0
cpu0_ITLB WRITEBACK ACCESS:          0  HIT:          0  MISS:          0
cpu0_ITLB TRANSLATION ACCESS:          0  HIT:          0  MISS:          0
cpu0_ITLB PREFETCH  REQUESTED:          0  ISSUED:          0  USEFUL:          0  USELESS:          0
cpu0_ITLB AVERAGE MISS LATENCY: -nan cycles
cpu0_STLB TOTAL     ACCESS:      12967  HIT:      12275  MISS:        692
cpu0_STLB LOAD      ACCESS:      12328  HIT:      11959  MISS:        369
cpu0_STLB RFO       ACCESS:        639  HIT:        316  MISS:        323
cpu0_STLB PREFETCH  ACCESS:          0  HIT:          0  MISS:          0
cpu0_STLB WRITEBACK ACCESS:          0  HIT:          0  MISS:          0
cpu0_STLB TRANSLATION ACCESS:          0  HIT:          0  MISS:          0
cpu0_STLB PREFETCH  REQUESTED:          0  ISSUED:          0  USEFUL:          0  USELESS:          0
cpu0_STLB AVERAGE MISS LATENCY: 202.467 cycles
cpu0_L1D TOTAL     ACCESS:   77779524  HIT:   77336706  MISS:     442818
cpu0_L1D LOAD      ACCESS:   65921498  HIT:   65499250  MISS:     422248
cpu0_L1D RFO       ACCESS:   11857335  HIT:   11836775  MISS:      20560
cpu0_L1D PREFETCH  ACCESS:          0  HIT:          0  MISS:          0
cpu0_L1D WRITEBACK ACCESS:          0  HIT:          0  MISS:          0
cpu0_L1D TRANSLATION ACCESS:        691  HIT:        681  MISS:         10
cpu0_L1D PREFETCH  REQUESTED:          0  ISSUED:          0  USEFUL:          0  USELESS:          0
cpu0_L1D AVERAGE MISS LATENCY: 21.2714 cycles
cpu0_L2C TOTAL     ACCESS:     493197  HIT:     453238  MISS:      39959
cpu0_L2C LOAD      ACCESS:     422248  HIT:     402813  MISS:      19435
cpu0_L2C RFO       ACCESS:      20560  HIT:         36  MISS:      20524
cpu0_L2C PREFETCH  ACCESS:          0  HIT:          0  MISS:          0
cpu0_L2C WRITEBACK ACCESS:      50379  HIT:      50379  MISS:          0
cpu0_L2C TRANSLATION ACCESS:         10  HIT:         10  MISS:          0
cpu0_L2C PREFETCH  REQUESTED:          0  ISSUED:          0  USEFUL:          0  USELESS:          0
cpu0_L2C AVERAGE MISS LATENCY: 113.217 cycles
LLC TOTAL     ACCESS:      49910  HIT:       9410  MISS:      40500
LLC LOAD      ACCESS:      19435  HIT:       7283  MISS:      12152
LLC RFO       ACCESS:      20524  HIT:          0  MISS:      20524
LLC PREFETCH  ACCESS:       9951  HIT:       2127  MISS:       7824
LLC WRITEBACK ACCESS:          0  HIT:          0  MISS:          0
LLC TRANSLATION ACCESS:          0  HIT:          0  MISS:          0
LLC PREFETCH  REQUESTED:      19435  ISSUED:      19435  USEFUL:      15761  USELESS:        547
LLC AVERAGE MISS LATENCY: 98.9807 cycles

DRAM Statistics
 CHANNEL 0
 RQ ROW_BUFFER_HIT:      33590  ROW_BUFFER_MISS:       6910
 DBUS AVG_CONGESTED_CYCLE:    3.92959
 WQ ROW_BUFFER_HIT:          0  ROW_BUFFER_MISS:          0  FULL:          0


CPU 0 Branch Prediction Accuracy: 97.4649% MPKI: 1.24284 Average ROB Occupancy at Mispredict: 223.925
Branch type MPKI
BRANCH_DIRECT_JUMP: 0
BRANCH_INDIRECT: 4e-05
BRANCH_CONDITIONAL: 1.2428
BRANCH_DIRECT_CALL: 0
BRANCH_INDIRECT_CALL: 0
BRANCH_RETURN: 4e-06

