/home/caslab/workspace/sim/ChampSim/bin/champsim --warmup_instructions 200000000 --simulation_instructions 500000000/ /home/caslab/workspace/sim/traces/speccpu_by_champsim454.calculix-104B.champsimtrace.xz
start simulation for 454.calculix-104B.champsimtrace.xz

*** ChampSim Multicore Out-of-Order Simulator ***

Warmup Instructions: 200000000
Simulation Instructions: 500000000
Number of CPUs: 1
Off-chip DRAM Size: 4 GiB Channels: 1 Width: 64-bit Data Rate: 3200 MT/s

VirtualMemory physical capacity: 8588881920 num_ppages: 2096895
VirtualMemory page size: 4096 log2_page_size: 12

CPU 0 runs /home/caslab/workspace/sim/traces/speccpu_by_champsim/454.calculix-104B.champsimtrace.xz
CPU 0 Bimodal branch predictor
Basic BTB sets: 1024 ways: 8 indirect buffer size: 4096 RAS size: 64
LLC next line prefetcher
WARNING: The extended signature CACHE::prefetch_line(ip, base_addr, pf_addr, fill_this_level, prefetch_metadata) is deprecated.
WARNING: Use CACHE::prefetch_line(pf_addr, fill_this_level, prefetch_metadata) instead.
Heartbeat CPU 0 instructions: 10000003 cycles: 3267254 heartbeat IPC: 3.06068 cumulative IPC: 3.06068 (Simulation time: 0 hr 0 min 29 sec) 
Heartbeat CPU 0 instructions: 20000002 cycles: 6534326 heartbeat IPC: 3.06084 cumulative IPC: 3.06076 (Simulation time: 0 hr 0 min 57 sec) 
Heartbeat CPU 0 instructions: 30000001 cycles: 9801406 heartbeat IPC: 3.06084 cumulative IPC: 3.06079 (Simulation time: 0 hr 1 min 26 sec) 
Heartbeat CPU 0 instructions: 40000000 cycles: 13067699 heartbeat IPC: 3.06157 cumulative IPC: 3.06098 (Simulation time: 0 hr 1 min 54 sec) 
Heartbeat CPU 0 instructions: 50000002 cycles: 16334778 heartbeat IPC: 3.06084 cumulative IPC: 3.06095 (Simulation time: 0 hr 2 min 22 sec) 
Heartbeat CPU 0 instructions: 60000003 cycles: 19571310 heartbeat IPC: 3.08973 cumulative IPC: 3.06571 (Simulation time: 0 hr 2 min 51 sec) 
Heartbeat CPU 0 instructions: 70000003 cycles: 22838400 heartbeat IPC: 3.06083 cumulative IPC: 3.06501 (Simulation time: 0 hr 3 min 19 sec) 
Heartbeat CPU 0 instructions: 80000001 cycles: 26105482 heartbeat IPC: 3.06083 cumulative IPC: 3.06449 (Simulation time: 0 hr 3 min 47 sec) 
Heartbeat CPU 0 instructions: 90000003 cycles: 29371762 heartbeat IPC: 3.06159 cumulative IPC: 3.06417 (Simulation time: 0 hr 4 min 16 sec) 
Heartbeat CPU 0 instructions: 100000003 cycles: 32638813 heartbeat IPC: 3.06086 cumulative IPC: 3.06384 (Simulation time: 0 hr 4 min 44 sec) 
Heartbeat CPU 0 instructions: 110000001 cycles: 35905902 heartbeat IPC: 3.06083 cumulative IPC: 3.06356 (Simulation time: 0 hr 5 min 13 sec) 
Heartbeat CPU 0 instructions: 120000003 cycles: 39172970 heartbeat IPC: 3.06085 cumulative IPC: 3.06334 (Simulation time: 0 hr 5 min 41 sec) 
Heartbeat CPU 0 instructions: 130000000 cycles: 42439271 heartbeat IPC: 3.06157 cumulative IPC: 3.0632 (Simulation time: 0 hr 6 min 10 sec) 
Heartbeat CPU 0 instructions: 140000000 cycles: 45633983 heartbeat IPC: 3.13017 cumulative IPC: 3.06789 (Simulation time: 0 hr 6 min 37 sec) 
Heartbeat CPU 0 instructions: 150000003 cycles: 48901023 heartbeat IPC: 3.06088 cumulative IPC: 3.06742 (Simulation time: 0 hr 7 min 6 sec) 
Heartbeat CPU 0 instructions: 160000004 cycles: 52168080 heartbeat IPC: 3.06086 cumulative IPC: 3.06701 (Simulation time: 0 hr 7 min 35 sec) 
Heartbeat CPU 0 instructions: 170000001 cycles: 55435168 heartbeat IPC: 3.06083 cumulative IPC: 3.06665 (Simulation time: 0 hr 8 min 3 sec) 
Heartbeat CPU 0 instructions: 180000001 cycles: 58701867 heartbeat IPC: 3.06119 cumulative IPC: 3.06634 (Simulation time: 0 hr 8 min 32 sec) 
Heartbeat CPU 0 instructions: 190000000 cycles: 61968526 heartbeat IPC: 3.06123 cumulative IPC: 3.06607 (Simulation time: 0 hr 9 min 1 sec) 
Heartbeat CPU 0 instructions: 200000000 cycles: 65235605 heartbeat IPC: 3.06084 cumulative IPC: 3.06581 (Simulation time: 0 hr 9 min 29 sec) 

Warmup complete CPU 0 instructions: 200000005 cycles: 65235606 (Simulation time: 0 hr 9 min 29 sec) 

Heartbeat CPU 0 instructions: 210000000 cycles: 72023806 heartbeat IPC: 1.47314 cumulative IPC: 1.47314 (Simulation time: 0 hr 9 min 47 sec) 
Heartbeat CPU 0 instructions: 220000000 cycles: 78811980 heartbeat IPC: 1.47315 cumulative IPC: 1.47315 (Simulation time: 0 hr 10 min 5 sec) 
Heartbeat CPU 0 instructions: 230000001 cycles: 85613922 heartbeat IPC: 1.47017 cumulative IPC: 1.47215 (Simulation time: 0 hr 10 min 23 sec) 
Heartbeat CPU 0 instructions: 240000004 cycles: 92402296 heartbeat IPC: 1.47311 cumulative IPC: 1.47239 (Simulation time: 0 hr 10 min 41 sec) 
Heartbeat CPU 0 instructions: 250000003 cycles: 99190441 heartbeat IPC: 1.47316 cumulative IPC: 1.47254 (Simulation time: 0 hr 10 min 59 sec) 
Heartbeat CPU 0 instructions: 260000000 cycles: 105978902 heartbeat IPC: 1.47309 cumulative IPC: 1.47263 (Simulation time: 0 hr 11 min 17 sec) 
Heartbeat CPU 0 instructions: 270000004 cycles: 112767134 heartbeat IPC: 1.47314 cumulative IPC: 1.47271 (Simulation time: 0 hr 11 min 35 sec) 
Heartbeat CPU 0 instructions: 280000004 cycles: 119553546 heartbeat IPC: 1.47353 cumulative IPC: 1.47281 (Simulation time: 0 hr 11 min 53 sec) 
Heartbeat CPU 0 instructions: 290000001 cycles: 126341754 heartbeat IPC: 1.47314 cumulative IPC: 1.47285 (Simulation time: 0 hr 12 min 11 sec) 
Heartbeat CPU 0 instructions: 300000000 cycles: 133129804 heartbeat IPC: 1.47318 cumulative IPC: 1.47288 (Simulation time: 0 hr 12 min 29 sec) 
Heartbeat CPU 0 instructions: 310000003 cycles: 140018264 heartbeat IPC: 1.4517 cumulative IPC: 1.47093 (Simulation time: 0 hr 12 min 47 sec) 
Heartbeat CPU 0 instructions: 320000004 cycles: 146806592 heartbeat IPC: 1.47312 cumulative IPC: 1.47111 (Simulation time: 0 hr 13 min 4 sec) 
Heartbeat CPU 0 instructions: 330000003 cycles: 153592922 heartbeat IPC: 1.47355 cumulative IPC: 1.4713 (Simulation time: 0 hr 13 min 22 sec) 
Heartbeat CPU 0 instructions: 340000000 cycles: 160381629 heartbeat IPC: 1.47303 cumulative IPC: 1.47142 (Simulation time: 0 hr 13 min 40 sec) 
Heartbeat CPU 0 instructions: 350000003 cycles: 167170029 heartbeat IPC: 1.4731 cumulative IPC: 1.47153 (Simulation time: 0 hr 13 min 58 sec) 
Heartbeat CPU 0 instructions: 360000000 cycles: 173958269 heartbeat IPC: 1.47314 cumulative IPC: 1.47163 (Simulation time: 0 hr 14 min 16 sec) 
Heartbeat CPU 0 instructions: 370000004 cycles: 180746335 heartbeat IPC: 1.47317 cumulative IPC: 1.47172 (Simulation time: 0 hr 14 min 34 sec) 
Heartbeat CPU 0 instructions: 380000001 cycles: 187532873 heartbeat IPC: 1.4735 cumulative IPC: 1.47182 (Simulation time: 0 hr 14 min 52 sec) 
Heartbeat CPU 0 instructions: 390000003 cycles: 194353822 heartbeat IPC: 1.46607 cumulative IPC: 1.47152 (Simulation time: 0 hr 15 min 10 sec) 
Heartbeat CPU 0 instructions: 400000002 cycles: 201142276 heartbeat IPC: 1.47309 cumulative IPC: 1.4716 (Simulation time: 0 hr 15 min 28 sec) 
Heartbeat CPU 0 instructions: 410000004 cycles: 207930332 heartbeat IPC: 1.47318 cumulative IPC: 1.47167 (Simulation time: 0 hr 15 min 46 sec) 
Heartbeat CPU 0 instructions: 420000001 cycles: 214719159 heartbeat IPC: 1.47301 cumulative IPC: 1.47173 (Simulation time: 0 hr 16 min 4 sec) 
Heartbeat CPU 0 instructions: 430000000 cycles: 221505635 heartbeat IPC: 1.47352 cumulative IPC: 1.47181 (Simulation time: 0 hr 16 min 22 sec) 
Heartbeat CPU 0 instructions: 440000004 cycles: 228294028 heartbeat IPC: 1.4731 cumulative IPC: 1.47187 (Simulation time: 0 hr 16 min 40 sec) 
Heartbeat CPU 0 instructions: 450000004 cycles: 235081997 heartbeat IPC: 1.47319 cumulative IPC: 1.47192 (Simulation time: 0 hr 16 min 58 sec) 
Heartbeat CPU 0 instructions: 460000004 cycles: 241870155 heartbeat IPC: 1.47315 cumulative IPC: 1.47197 (Simulation time: 0 hr 17 min 16 sec) 
Heartbeat CPU 0 instructions: 470000001 cycles: 248656496 heartbeat IPC: 1.47355 cumulative IPC: 1.47202 (Simulation time: 0 hr 17 min 33 sec) 
Heartbeat CPU 0 instructions: 480000001 cycles: 255544933 heartbeat IPC: 1.45171 cumulative IPC: 1.47129 (Simulation time: 0 hr 17 min 52 sec) 
Heartbeat CPU 0 instructions: 490000002 cycles: 262333489 heartbeat IPC: 1.47307 cumulative IPC: 1.47135 (Simulation time: 0 hr 18 min 10 sec) 
Heartbeat CPU 0 instructions: 500000000 cycles: 269121880 heartbeat IPC: 1.4731 cumulative IPC: 1.47141 (Simulation time: 0 hr 18 min 28 sec) 
Heartbeat CPU 0 instructions: 510000001 cycles: 275910141 heartbeat IPC: 1.47313 cumulative IPC: 1.47146 (Simulation time: 0 hr 18 min 46 sec) 
Heartbeat CPU 0 instructions: 520000003 cycles: 282698204 heartbeat IPC: 1.47317 cumulative IPC: 1.47152 (Simulation time: 0 hr 19 min 4 sec) 
Heartbeat CPU 0 instructions: 530000001 cycles: 289484614 heartbeat IPC: 1.47353 cumulative IPC: 1.47158 (Simulation time: 0 hr 19 min 22 sec) 
Heartbeat CPU 0 instructions: 540000001 cycles: 296272891 heartbeat IPC: 1.47313 cumulative IPC: 1.47162 (Simulation time: 0 hr 19 min 40 sec) 
Heartbeat CPU 0 instructions: 550000002 cycles: 303061174 heartbeat IPC: 1.47313 cumulative IPC: 1.47167 (Simulation time: 0 hr 19 min 58 sec) 
Heartbeat CPU 0 instructions: 560000000 cycles: 309852187 heartbeat IPC: 1.47253 cumulative IPC: 1.47169 (Simulation time: 0 hr 20 min 16 sec) 
Heartbeat CPU 0 instructions: 570000001 cycles: 316638879 heartbeat IPC: 1.47347 cumulative IPC: 1.47174 (Simulation time: 0 hr 20 min 34 sec) 
Heartbeat CPU 0 instructions: 580000002 cycles: 323427258 heartbeat IPC: 1.47311 cumulative IPC: 1.47177 (Simulation time: 0 hr 20 min 52 sec) 
Heartbeat CPU 0 instructions: 590000002 cycles: 330215461 heartbeat IPC: 1.47314 cumulative IPC: 1.47181 (Simulation time: 0 hr 21 min 11 sec) 
Heartbeat CPU 0 instructions: 600000000 cycles: 337003629 heartbeat IPC: 1.47315 cumulative IPC: 1.47184 (Simulation time: 0 hr 21 min 29 sec) 
Heartbeat CPU 0 instructions: 610000002 cycles: 343791592 heartbeat IPC: 1.4732 cumulative IPC: 1.47188 (Simulation time: 0 hr 21 min 47 sec) 
Heartbeat CPU 0 instructions: 620000002 cycles: 350577935 heartbeat IPC: 1.47355 cumulative IPC: 1.47192 (Simulation time: 0 hr 22 min 5 sec) 
Heartbeat CPU 0 instructions: 630000000 cycles: 357366281 heartbeat IPC: 1.47311 cumulative IPC: 1.47194 (Simulation time: 0 hr 22 min 23 sec) 
Heartbeat CPU 0 instructions: 640000004 cycles: 364154783 heartbeat IPC: 1.47308 cumulative IPC: 1.47197 (Simulation time: 0 hr 22 min 41 sec) 
Heartbeat CPU 0 instructions: 650000004 cycles: 371029388 heartbeat IPC: 1.45463 cumulative IPC: 1.47158 (Simulation time: 0 hr 22 min 59 sec) 
Heartbeat CPU 0 instructions: 660000001 cycles: 377817554 heartbeat IPC: 1.47315 cumulative IPC: 1.47161 (Simulation time: 0 hr 23 min 17 sec) 
Heartbeat CPU 0 instructions: 670000000 cycles: 384603723 heartbeat IPC: 1.47359 cumulative IPC: 1.47166 (Simulation time: 0 hr 23 min 35 sec) 
Heartbeat CPU 0 instructions: 680000002 cycles: 391392458 heartbeat IPC: 1.47303 cumulative IPC: 1.47168 (Simulation time: 0 hr 23 min 53 sec) 
Heartbeat CPU 0 instructions: 690000000 cycles: 398180716 heartbeat IPC: 1.47313 cumulative IPC: 1.47171 (Simulation time: 0 hr 24 min 10 sec) 
Heartbeat CPU 0 instructions: 700000000 cycles: 404968761 heartbeat IPC: 1.47318 cumulative IPC: 1.47174 (Simulation time: 0 hr 24 min 28 sec) 
Finished CPU 0 instructions: 500000004 cycles: 339733165 cumulative IPC: 1.47174 (Simulation time: 0 hr 24 min 28 sec) 

ChampSim completed all CPUs

Region of Interest Statistics

CPU 0 cumulative IPC: 1.47174 instructions: 500000004 cycles: 339733165
cpu0_L1I TOTAL     ACCESS:     311648  HIT:     311648  MISS:          0
cpu0_L1I LOAD      ACCESS:     311648  HIT:     311648  MISS:          0
cpu0_L1I RFO       ACCESS:          0  HIT:          0  MISS:          0
cpu0_L1I PREFETCH  ACCESS:          0  HIT:          0  MISS:          0
cpu0_L1I WRITEBACK ACCESS:          0  HIT:          0  MISS:          0
cpu0_L1I TRANSLATION ACCESS:          0  HIT:          0  MISS:          0
cpu0_L1I PREFETCH  REQUESTED:          0  ISSUED:          0  USEFUL:          0  USELESS:          0
cpu0_L1I AVERAGE MISS LATENCY: -nan cycles
cpu0_DTLB TOTAL     ACCESS:  101478939  HIT:  101478797  MISS:        142
cpu0_DTLB LOAD      ACCESS:   97315259  HIT:   97315117  MISS:        142
cpu0_DTLB RFO       ACCESS:    4163680  HIT:    4163680  MISS:          0
cpu0_DTLB PREFETCH  ACCESS:          0  HIT:          0  MISS:          0
cpu0_DTLB WRITEBACK ACCESS:          0  HIT:          0  MISS:          0
cpu0_DTLB TRANSLATION ACCESS:          0  HIT:          0  MISS:          0
cpu0_DTLB PREFETCH  REQUESTED:          0  ISSUED:          0  USEFUL:          0  USELESS:          0
cpu0_DTLB AVERAGE MISS LATENCY: 80.7817 cycles
cpu0_ITLB TOTAL     ACCESS:   50345177  HIT:   50345177  MISS:          0
cpu0_ITLB LOAD      ACCESS:   50345177  HIT:   50345177  MISS:          0
cpu0_ITLB RFO       ACCESS:          0  HIT:          0  MISS:          0
cpu0_ITLB PREFETCH  ACCESS:          0  HIT:          0  MISS:          0
cpu0_ITLB WRITEBACK ACCESS:          0  HIT:          0  MISS:          0
cpu0_ITLB TRANSLATION ACCESS:          0  HIT:          0  MISS:          0
cpu0_ITLB PREFETCH  REQUESTED:          0  ISSUED:          0  USEFUL:          0  USELESS:          0
cpu0_ITLB AVERAGE MISS LATENCY: -nan cycles
cpu0_STLB TOTAL     ACCESS:        142  HIT:         93  MISS:         49
cpu0_STLB LOAD      ACCESS:        142  HIT:         93  MISS:         49
cpu0_STLB RFO       ACCESS:          0  HIT:          0  MISS:          0
cpu0_STLB PREFETCH  ACCESS:          0  HIT:          0  MISS:          0
cpu0_STLB WRITEBACK ACCESS:          0  HIT:          0  MISS:          0
cpu0_STLB TRANSLATION ACCESS:          0  HIT:          0  MISS:          0
cpu0_STLB PREFETCH  REQUESTED:          0  ISSUED:          0  USEFUL:          0  USELESS:          0
cpu0_STLB AVERAGE MISS LATENCY: 208 cycles
cpu0_L1D TOTAL     ACCESS:  119697531  HIT:  119695138  MISS:       2393
cpu0_L1D LOAD      ACCESS:  110100904  HIT:  110098511  MISS:       2393
cpu0_L1D RFO       ACCESS:    9596580  HIT:    9596580  MISS:          0
cpu0_L1D PREFETCH  ACCESS:          0  HIT:          0  MISS:          0
cpu0_L1D WRITEBACK ACCESS:          0  HIT:          0  MISS:          0
cpu0_L1D TRANSLATION ACCESS:         47  HIT:         47  MISS:          0
cpu0_L1D PREFETCH  REQUESTED:          0  ISSUED:          0  USEFUL:          0  USELESS:          0
cpu0_L1D AVERAGE MISS LATENCY: 110.055 cycles
cpu0_L2C TOTAL     ACCESS:       2393  HIT:          0  MISS:       2393
cpu0_L2C LOAD      ACCESS:       2393  HIT:          0  MISS:       2393
cpu0_L2C RFO       ACCESS:          0  HIT:          0  MISS:          0
cpu0_L2C PREFETCH  ACCESS:          0  HIT:          0  MISS:          0
cpu0_L2C WRITEBACK ACCESS:          0  HIT:          0  MISS:          0
cpu0_L2C TRANSLATION ACCESS:          0  HIT:          0  MISS:          0
cpu0_L2C PREFETCH  REQUESTED:          0  ISSUED:          0  USEFUL:          0  USELESS:          0
cpu0_L2C AVERAGE MISS LATENCY: 99.0376 cycles
LLC TOTAL     ACCESS:       4378  HIT:       1835  MISS:       2543
LLC LOAD      ACCESS:       2393  HIT:       1109  MISS:       1284
LLC RFO       ACCESS:          0  HIT:          0  MISS:          0
LLC PREFETCH  ACCESS:       1985  HIT:        726  MISS:       1259
LLC WRITEBACK ACCESS:          0  HIT:          0  MISS:          0
LLC TRANSLATION ACCESS:          0  HIT:          0  MISS:          0
LLC PREFETCH  REQUESTED:       2393  ISSUED:       2393  USEFUL:       1149  USELESS:          0
LLC AVERAGE MISS LATENCY: 147.061 cycles

DRAM Statistics
 CHANNEL 0
 RQ ROW_BUFFER_HIT:        507  ROW_BUFFER_MISS:       2036
 DBUS AVG_CONGESTED_CYCLE:    3.49118
 WQ ROW_BUFFER_HIT:          0  ROW_BUFFER_MISS:          0  FULL:          0


CPU 0 Branch Prediction Accuracy: 52.9677% MPKI: 42.4128 Average ROB Occupancy at Mispredict: 40.4082
Branch type MPKI
BRANCH_DIRECT_JUMP: 0
BRANCH_INDIRECT: 0
BRANCH_CONDITIONAL: 42.4128
BRANCH_DIRECT_CALL: 0
BRANCH_INDIRECT_CALL: 0
BRANCH_RETURN: 0

