/home/caslab/workspace/sim/ChampSim/bin/champsim --warmup_instructions 200000000 --simulation_instructions 500000000/ /home/caslab/workspace/sim/traces/speccpu_by_champsim456.hmmer-88B.champsimtrace.xz
start simulation for 456.hmmer-88B.champsimtrace.xz

*** ChampSim Multicore Out-of-Order Simulator ***

Warmup Instructions: 200000000
Simulation Instructions: 500000000
Number of CPUs: 1
Off-chip DRAM Size: 4 GiB Channels: 1 Width: 64-bit Data Rate: 3200 MT/s

VirtualMemory physical capacity: 8588881920 num_ppages: 2096895
VirtualMemory page size: 4096 log2_page_size: 12

CPU 0 runs /home/caslab/workspace/sim/traces/speccpu_by_champsim/456.hmmer-88B.champsimtrace.xz
CPU 0 Bimodal branch predictor
Basic BTB sets: 1024 ways: 8 indirect buffer size: 4096 RAS size: 64
LLC next line prefetcher
WARNING: The extended signature CACHE::prefetch_line(ip, base_addr, pf_addr, fill_this_level, prefetch_metadata) is deprecated.
WARNING: Use CACHE::prefetch_line(pf_addr, fill_this_level, prefetch_metadata) instead.
Heartbeat CPU 0 instructions: 10000002 cycles: 3925702 heartbeat IPC: 2.54732 cumulative IPC: 2.54732 (Simulation time: 0 hr 0 min 36 sec) 
Heartbeat CPU 0 instructions: 20000003 cycles: 7868586 heartbeat IPC: 2.53621 cumulative IPC: 2.54175 (Simulation time: 0 hr 1 min 13 sec) 
Heartbeat CPU 0 instructions: 30000000 cycles: 11811213 heartbeat IPC: 2.53638 cumulative IPC: 2.53996 (Simulation time: 0 hr 1 min 49 sec) 
Heartbeat CPU 0 instructions: 40000003 cycles: 15737713 heartbeat IPC: 2.5468 cumulative IPC: 2.54167 (Simulation time: 0 hr 2 min 25 sec) 
Heartbeat CPU 0 instructions: 50000004 cycles: 19680300 heartbeat IPC: 2.53641 cumulative IPC: 2.54061 (Simulation time: 0 hr 3 min 2 sec) 
Heartbeat CPU 0 instructions: 60000001 cycles: 23620855 heartbeat IPC: 2.53771 cumulative IPC: 2.54013 (Simulation time: 0 hr 3 min 39 sec) 
Heartbeat CPU 0 instructions: 70000002 cycles: 27559151 heartbeat IPC: 2.53917 cumulative IPC: 2.53999 (Simulation time: 0 hr 4 min 16 sec) 
Heartbeat CPU 0 instructions: 80000000 cycles: 31497774 heartbeat IPC: 2.53896 cumulative IPC: 2.53986 (Simulation time: 0 hr 4 min 52 sec) 
Heartbeat CPU 0 instructions: 90000003 cycles: 35431998 heartbeat IPC: 2.5418 cumulative IPC: 2.54008 (Simulation time: 0 hr 5 min 28 sec) 
Heartbeat CPU 0 instructions: 100000003 cycles: 39370426 heartbeat IPC: 2.53908 cumulative IPC: 2.53998 (Simulation time: 0 hr 6 min 5 sec) 
Heartbeat CPU 0 instructions: 110000001 cycles: 43308784 heartbeat IPC: 2.53913 cumulative IPC: 2.5399 (Simulation time: 0 hr 6 min 41 sec) 
Heartbeat CPU 0 instructions: 120000004 cycles: 47242967 heartbeat IPC: 2.54182 cumulative IPC: 2.54006 (Simulation time: 0 hr 7 min 17 sec) 
Heartbeat CPU 0 instructions: 130000001 cycles: 51181319 heartbeat IPC: 2.53913 cumulative IPC: 2.53999 (Simulation time: 0 hr 7 min 54 sec) 
Heartbeat CPU 0 instructions: 140000001 cycles: 55104742 heartbeat IPC: 2.54879 cumulative IPC: 2.54062 (Simulation time: 0 hr 8 min 30 sec) 
Heartbeat CPU 0 instructions: 150000004 cycles: 59047635 heartbeat IPC: 2.53621 cumulative IPC: 2.54032 (Simulation time: 0 hr 9 min 6 sec) 
Heartbeat CPU 0 instructions: 160000004 cycles: 62990277 heartbeat IPC: 2.53637 cumulative IPC: 2.54007 (Simulation time: 0 hr 9 min 43 sec) 
Heartbeat CPU 0 instructions: 170000004 cycles: 66927279 heartbeat IPC: 2.54 cumulative IPC: 2.54007 (Simulation time: 0 hr 10 min 20 sec) 
Heartbeat CPU 0 instructions: 180000003 cycles: 70866551 heartbeat IPC: 2.53854 cumulative IPC: 2.53999 (Simulation time: 0 hr 10 min 56 sec) 
Heartbeat CPU 0 instructions: 190000003 cycles: 74799270 heartbeat IPC: 2.54277 cumulative IPC: 2.54013 (Simulation time: 0 hr 11 min 33 sec) 
Heartbeat CPU 0 instructions: 200000001 cycles: 78735451 heartbeat IPC: 2.54053 cumulative IPC: 2.54015 (Simulation time: 0 hr 12 min 9 sec) 

Warmup complete CPU 0 instructions: 200000001 cycles: 78735451 (Simulation time: 0 hr 12 min 9 sec) 

Heartbeat CPU 0 instructions: 210000002 cycles: 82750797 heartbeat IPC: 2.49045 cumulative IPC: 2.49045 (Simulation time: 0 hr 12 min 50 sec) 
Heartbeat CPU 0 instructions: 220000000 cycles: 86764561 heartbeat IPC: 2.49143 cumulative IPC: 2.49094 (Simulation time: 0 hr 13 min 32 sec) 
Heartbeat CPU 0 instructions: 230000001 cycles: 90777060 heartbeat IPC: 2.49221 cumulative IPC: 2.49136 (Simulation time: 0 hr 14 min 14 sec) 
Heartbeat CPU 0 instructions: 240000004 cycles: 94764225 heartbeat IPC: 2.50805 cumulative IPC: 2.49551 (Simulation time: 0 hr 14 min 56 sec) 
Heartbeat CPU 0 instructions: 250000000 cycles: 98778898 heartbeat IPC: 2.49086 cumulative IPC: 2.49458 (Simulation time: 0 hr 15 min 38 sec) 
Heartbeat CPU 0 instructions: 260000004 cycles: 102793442 heartbeat IPC: 2.49094 cumulative IPC: 2.49397 (Simulation time: 0 hr 16 min 19 sec) 
Heartbeat CPU 0 instructions: 270000001 cycles: 106807918 heartbeat IPC: 2.49098 cumulative IPC: 2.49355 (Simulation time: 0 hr 17 min 1 sec) 
Heartbeat CPU 0 instructions: 280000001 cycles: 110822968 heartbeat IPC: 2.49063 cumulative IPC: 2.49318 (Simulation time: 0 hr 17 min 43 sec) 
Heartbeat CPU 0 instructions: 290000000 cycles: 114837895 heartbeat IPC: 2.49071 cumulative IPC: 2.49291 (Simulation time: 0 hr 18 min 26 sec) 
Heartbeat CPU 0 instructions: 300000001 cycles: 118852663 heartbeat IPC: 2.4908 cumulative IPC: 2.4927 (Simulation time: 0 hr 19 min 8 sec) 
Heartbeat CPU 0 instructions: 310000003 cycles: 122867112 heartbeat IPC: 2.491 cumulative IPC: 2.49254 (Simulation time: 0 hr 19 min 50 sec) 
Heartbeat CPU 0 instructions: 320000001 cycles: 126881226 heartbeat IPC: 2.49121 cumulative IPC: 2.49243 (Simulation time: 0 hr 20 min 31 sec) 
Heartbeat CPU 0 instructions: 330000002 cycles: 130894755 heartbeat IPC: 2.49157 cumulative IPC: 2.49236 (Simulation time: 0 hr 21 min 12 sec) 
Heartbeat CPU 0 instructions: 340000004 cycles: 134909218 heartbeat IPC: 2.49099 cumulative IPC: 2.49227 (Simulation time: 0 hr 21 min 54 sec) 
Heartbeat CPU 0 instructions: 350000001 cycles: 138922036 heartbeat IPC: 2.49201 cumulative IPC: 2.49225 (Simulation time: 0 hr 22 min 35 sec) 
Heartbeat CPU 0 instructions: 360000000 cycles: 142935803 heartbeat IPC: 2.49142 cumulative IPC: 2.4922 (Simulation time: 0 hr 23 min 16 sec) 
Heartbeat CPU 0 instructions: 370000003 cycles: 146922610 heartbeat IPC: 2.50827 cumulative IPC: 2.49314 (Simulation time: 0 hr 23 min 58 sec) 
Heartbeat CPU 0 instructions: 380000004 cycles: 150935942 heartbeat IPC: 2.4917 cumulative IPC: 2.49306 (Simulation time: 0 hr 24 min 40 sec) 
Heartbeat CPU 0 instructions: 390000000 cycles: 154950951 heartbeat IPC: 2.49065 cumulative IPC: 2.49293 (Simulation time: 0 hr 25 min 21 sec) 
Heartbeat CPU 0 instructions: 400000004 cycles: 158963987 heartbeat IPC: 2.49188 cumulative IPC: 2.49288 (Simulation time: 0 hr 26 min 3 sec) 
Heartbeat CPU 0 instructions: 410000000 cycles: 162976767 heartbeat IPC: 2.49204 cumulative IPC: 2.49284 (Simulation time: 0 hr 26 min 44 sec) 
Heartbeat CPU 0 instructions: 420000000 cycles: 166991070 heartbeat IPC: 2.49109 cumulative IPC: 2.49276 (Simulation time: 0 hr 27 min 26 sec) 
Heartbeat CPU 0 instructions: 430000000 cycles: 171001241 heartbeat IPC: 2.49366 cumulative IPC: 2.4928 (Simulation time: 0 hr 28 min 7 sec) 
Heartbeat CPU 0 instructions: 440000000 cycles: 175014901 heartbeat IPC: 2.49149 cumulative IPC: 2.49274 (Simulation time: 0 hr 28 min 48 sec) 
Heartbeat CPU 0 instructions: 450000000 cycles: 179030012 heartbeat IPC: 2.49059 cumulative IPC: 2.49266 (Simulation time: 0 hr 29 min 30 sec) 
Heartbeat CPU 0 instructions: 460000003 cycles: 183044948 heartbeat IPC: 2.4907 cumulative IPC: 2.49258 (Simulation time: 0 hr 30 min 11 sec) 
Heartbeat CPU 0 instructions: 470000000 cycles: 187059603 heartbeat IPC: 2.49087 cumulative IPC: 2.49252 (Simulation time: 0 hr 30 min 53 sec) 
Heartbeat CPU 0 instructions: 480000002 cycles: 191074202 heartbeat IPC: 2.49091 cumulative IPC: 2.49246 (Simulation time: 0 hr 31 min 35 sec) 
Heartbeat CPU 0 instructions: 490000000 cycles: 195085429 heartbeat IPC: 2.493 cumulative IPC: 2.49248 (Simulation time: 0 hr 32 min 17 sec) 
Heartbeat CPU 0 instructions: 500000004 cycles: 199100398 heartbeat IPC: 2.49068 cumulative IPC: 2.49242 (Simulation time: 0 hr 32 min 59 sec) 
Heartbeat CPU 0 instructions: 510000001 cycles: 203114972 heartbeat IPC: 2.49092 cumulative IPC: 2.49237 (Simulation time: 0 hr 33 min 40 sec) 
Heartbeat CPU 0 instructions: 520000003 cycles: 207101761 heartbeat IPC: 2.50828 cumulative IPC: 2.49287 (Simulation time: 0 hr 34 min 22 sec) 
Heartbeat CPU 0 instructions: 530000003 cycles: 211116143 heartbeat IPC: 2.49104 cumulative IPC: 2.49281 (Simulation time: 0 hr 35 min 3 sec) 
Heartbeat CPU 0 instructions: 540000000 cycles: 215131067 heartbeat IPC: 2.49071 cumulative IPC: 2.49275 (Simulation time: 0 hr 35 min 44 sec) 
Heartbeat CPU 0 instructions: 550000001 cycles: 219146545 heartbeat IPC: 2.49036 cumulative IPC: 2.49268 (Simulation time: 0 hr 36 min 26 sec) 
Heartbeat CPU 0 instructions: 560000004 cycles: 223160565 heartbeat IPC: 2.49127 cumulative IPC: 2.49264 (Simulation time: 0 hr 37 min 7 sec) 
Heartbeat CPU 0 instructions: 570000001 cycles: 227169244 heartbeat IPC: 2.49459 cumulative IPC: 2.49269 (Simulation time: 0 hr 37 min 49 sec) 
Heartbeat CPU 0 instructions: 580000001 cycles: 231184280 heartbeat IPC: 2.49064 cumulative IPC: 2.49264 (Simulation time: 0 hr 38 min 31 sec) 
Heartbeat CPU 0 instructions: 590000002 cycles: 235198847 heartbeat IPC: 2.49093 cumulative IPC: 2.4926 (Simulation time: 0 hr 39 min 14 sec) 
Heartbeat CPU 0 instructions: 600000002 cycles: 239212636 heartbeat IPC: 2.49141 cumulative IPC: 2.49257 (Simulation time: 0 hr 39 min 55 sec) 
Heartbeat CPU 0 instructions: 610000001 cycles: 243225220 heartbeat IPC: 2.49216 cumulative IPC: 2.49256 (Simulation time: 0 hr 40 min 37 sec) 
Heartbeat CPU 0 instructions: 620000004 cycles: 247238588 heartbeat IPC: 2.49167 cumulative IPC: 2.49254 (Simulation time: 0 hr 41 min 18 sec) 
Heartbeat CPU 0 instructions: 630000003 cycles: 251253338 heartbeat IPC: 2.49081 cumulative IPC: 2.4925 (Simulation time: 0 hr 42 min 1 sec) 
Heartbeat CPU 0 instructions: 640000000 cycles: 255266929 heartbeat IPC: 2.49153 cumulative IPC: 2.49247 (Simulation time: 0 hr 42 min 43 sec) 
Heartbeat CPU 0 instructions: 650000003 cycles: 259281996 heartbeat IPC: 2.49062 cumulative IPC: 2.49243 (Simulation time: 0 hr 43 min 25 sec) 
Heartbeat CPU 0 instructions: 660000004 cycles: 263295737 heartbeat IPC: 2.49144 cumulative IPC: 2.49241 (Simulation time: 0 hr 44 min 7 sec) 
Heartbeat CPU 0 instructions: 670000000 cycles: 267308204 heartbeat IPC: 2.49223 cumulative IPC: 2.49241 (Simulation time: 0 hr 44 min 48 sec) 
Heartbeat CPU 0 instructions: 680000001 cycles: 271322063 heartbeat IPC: 2.49137 cumulative IPC: 2.49239 (Simulation time: 0 hr 45 min 30 sec) 
Heartbeat CPU 0 instructions: 690000004 cycles: 275309866 heartbeat IPC: 2.50765 cumulative IPC: 2.49269 (Simulation time: 0 hr 46 min 12 sec) 
Heartbeat CPU 0 instructions: 700000001 cycles: 279323585 heartbeat IPC: 2.49145 cumulative IPC: 2.49267 (Simulation time: 0 hr 46 min 54 sec) 
Finished CPU 0 instructions: 500000000 cycles: 200588134 cumulative IPC: 2.49267 (Simulation time: 0 hr 46 min 54 sec) 

ChampSim completed all CPUs

Region of Interest Statistics

CPU 0 cumulative IPC: 2.49267 instructions: 500000000 cycles: 200588134
cpu0_L1I TOTAL     ACCESS:     374966  HIT:     374966  MISS:          0
cpu0_L1I LOAD      ACCESS:     374966  HIT:     374966  MISS:          0
cpu0_L1I RFO       ACCESS:          0  HIT:          0  MISS:          0
cpu0_L1I PREFETCH  ACCESS:          0  HIT:          0  MISS:          0
cpu0_L1I WRITEBACK ACCESS:          0  HIT:          0  MISS:          0
cpu0_L1I TRANSLATION ACCESS:          0  HIT:          0  MISS:          0
cpu0_L1I PREFETCH  REQUESTED:          0  ISSUED:          0  USEFUL:          0  USELESS:          0
cpu0_L1I AVERAGE MISS LATENCY: -nan cycles
cpu0_DTLB TOTAL     ACCESS:  184303470  HIT:  184280456  MISS:      23014
cpu0_DTLB LOAD      ACCESS:  146995144  HIT:  146991601  MISS:       3543
cpu0_DTLB RFO       ACCESS:   37308326  HIT:   37288855  MISS:      19471
cpu0_DTLB PREFETCH  ACCESS:          0  HIT:          0  MISS:          0
cpu0_DTLB WRITEBACK ACCESS:          0  HIT:          0  MISS:          0
cpu0_DTLB TRANSLATION ACCESS:          0  HIT:          0  MISS:          0
cpu0_DTLB PREFETCH  REQUESTED:          0  ISSUED:          0  USEFUL:          0  USELESS:          0
cpu0_DTLB AVERAGE MISS LATENCY: 9.07165 cycles
cpu0_ITLB TOTAL     ACCESS:    8539167  HIT:    8539167  MISS:          0
cpu0_ITLB LOAD      ACCESS:    8539167  HIT:    8539167  MISS:          0
cpu0_ITLB RFO       ACCESS:          0  HIT:          0  MISS:          0
cpu0_ITLB PREFETCH  ACCESS:          0  HIT:          0  MISS:          0
cpu0_ITLB WRITEBACK ACCESS:          0  HIT:          0  MISS:          0
cpu0_ITLB TRANSLATION ACCESS:          0  HIT:          0  MISS:          0
cpu0_ITLB PREFETCH  REQUESTED:          0  ISSUED:          0  USEFUL:          0  USELESS:          0
cpu0_ITLB AVERAGE MISS LATENCY: -nan cycles
cpu0_STLB TOTAL     ACCESS:      23014  HIT:      23007  MISS:          7
cpu0_STLB LOAD      ACCESS:       3543  HIT:       3536  MISS:          7
cpu0_STLB RFO       ACCESS:      19471  HIT:      19471  MISS:          0
cpu0_STLB PREFETCH  ACCESS:          0  HIT:          0  MISS:          0
cpu0_STLB WRITEBACK ACCESS:          0  HIT:          0  MISS:          0
cpu0_STLB TRANSLATION ACCESS:          0  HIT:          0  MISS:          0
cpu0_STLB PREFETCH  REQUESTED:          0  ISSUED:          0  USEFUL:          0  USELESS:          0
cpu0_STLB AVERAGE MISS LATENCY: 209.571 cycles
cpu0_L1D TOTAL     ACCESS:  180674597  HIT:  180629525  MISS:      45072
cpu0_L1D LOAD      ACCESS:  149377667  HIT:  149377033  MISS:        634
cpu0_L1D RFO       ACCESS:   31296923  HIT:   31252486  MISS:      44437
cpu0_L1D PREFETCH  ACCESS:          0  HIT:          0  MISS:          0
cpu0_L1D WRITEBACK ACCESS:          0  HIT:          0  MISS:          0
cpu0_L1D TRANSLATION ACCESS:          7  HIT:          6  MISS:          1
cpu0_L1D PREFETCH  REQUESTED:          0  ISSUED:          0  USEFUL:          0  USELESS:          0
cpu0_L1D AVERAGE MISS LATENCY: 11.382 cycles
cpu0_L2C TOTAL     ACCESS:      89753  HIT:      89242  MISS:        511
cpu0_L2C LOAD      ACCESS:        634  HIT:        129  MISS:        505
cpu0_L2C RFO       ACCESS:      44249  HIT:      44243  MISS:          6
cpu0_L2C PREFETCH  ACCESS:          0  HIT:          0  MISS:          0
cpu0_L2C WRITEBACK ACCESS:      44869  HIT:      44869  MISS:          0
cpu0_L2C TRANSLATION ACCESS:          1  HIT:          1  MISS:          0
cpu0_L2C PREFETCH  REQUESTED:          0  ISSUED:          0  USEFUL:          0  USELESS:          0
cpu0_L2C AVERAGE MISS LATENCY: 37.3718 cycles
LLC TOTAL     ACCESS:       1011  HIT:        502  MISS:        509
LLC LOAD      ACCESS:        505  HIT:        456  MISS:         49
LLC RFO       ACCESS:          6  HIT:          0  MISS:          6
LLC PREFETCH  ACCESS:        500  HIT:         46  MISS:        454
LLC WRITEBACK ACCESS:          0  HIT:          0  MISS:          0
LLC TRANSLATION ACCESS:          0  HIT:          0  MISS:          0
LLC PREFETCH  REQUESTED:        505  ISSUED:        505  USEFUL:        461  USELESS:          0
LLC AVERAGE MISS LATENCY: 105.483 cycles

DRAM Statistics
 CHANNEL 0
 RQ ROW_BUFFER_HIT:        290  ROW_BUFFER_MISS:        219
 DBUS AVG_CONGESTED_CYCLE:    3.42105
 WQ ROW_BUFFER_HIT:          0  ROW_BUFFER_MISS:          0  FULL:          0


CPU 0 Branch Prediction Accuracy: 99.181% MPKI: 0.361738 Average ROB Occupancy at Mispredict: 147.292
Branch type MPKI
BRANCH_DIRECT_JUMP: 0
BRANCH_INDIRECT: 0.00034
BRANCH_CONDITIONAL: 0.361378
BRANCH_DIRECT_CALL: 0
BRANCH_INDIRECT_CALL: 2e-05
BRANCH_RETURN: 0

