/home/caslab/workspace/sim/ChampSim/bin/champsim --warmup_instructions 200000000 --simulation_instructions 500000000/ /home/caslab/workspace/sim/traces/speccpu_by_champsim456.hmmer-191B.champsimtrace.xz
start simulation for 456.hmmer-191B.champsimtrace.xz

*** ChampSim Multicore Out-of-Order Simulator ***

Warmup Instructions: 200000000
Simulation Instructions: 500000000
Number of CPUs: 1
Off-chip DRAM Size: 4 GiB Channels: 1 Width: 64-bit Data Rate: 3200 MT/s

VirtualMemory physical capacity: 8588881920 num_ppages: 2096895
VirtualMemory page size: 4096 log2_page_size: 12

CPU 0 runs /home/caslab/workspace/sim/traces/speccpu_by_champsim/456.hmmer-191B.champsimtrace.xz
CPU 0 Bimodal branch predictor
Basic BTB sets: 1024 ways: 8 indirect buffer size: 4096 RAS size: 64
LLC next line prefetcher
WARNING: The extended signature CACHE::prefetch_line(ip, base_addr, pf_addr, fill_this_level, prefetch_metadata) is deprecated.
WARNING: Use CACHE::prefetch_line(pf_addr, fill_this_level, prefetch_metadata) instead.
Heartbeat CPU 0 instructions: 10000003 cycles: 3942982 heartbeat IPC: 2.53615 cumulative IPC: 2.53615 (Simulation time: 0 hr 0 min 37 sec) 
Heartbeat CPU 0 instructions: 20000004 cycles: 7885552 heartbeat IPC: 2.53642 cumulative IPC: 2.53628 (Simulation time: 0 hr 1 min 14 sec) 
Heartbeat CPU 0 instructions: 30000003 cycles: 11822987 heartbeat IPC: 2.53972 cumulative IPC: 2.53743 (Simulation time: 0 hr 1 min 52 sec) 
Heartbeat CPU 0 instructions: 40000003 cycles: 15765772 heartbeat IPC: 2.53628 cumulative IPC: 2.53714 (Simulation time: 0 hr 2 min 29 sec) 
Heartbeat CPU 0 instructions: 50000004 cycles: 19700022 heartbeat IPC: 2.54178 cumulative IPC: 2.53807 (Simulation time: 0 hr 3 min 6 sec) 
Heartbeat CPU 0 instructions: 60000004 cycles: 23638181 heartbeat IPC: 2.53926 cumulative IPC: 2.53827 (Simulation time: 0 hr 3 min 43 sec) 
Heartbeat CPU 0 instructions: 70000003 cycles: 27573294 heartbeat IPC: 2.54122 cumulative IPC: 2.53869 (Simulation time: 0 hr 4 min 20 sec) 
Heartbeat CPU 0 instructions: 80000001 cycles: 31511930 heartbeat IPC: 2.53895 cumulative IPC: 2.53872 (Simulation time: 0 hr 4 min 57 sec) 
Heartbeat CPU 0 instructions: 90000002 cycles: 35450747 heartbeat IPC: 2.53883 cumulative IPC: 2.53873 (Simulation time: 0 hr 5 min 34 sec) 
Heartbeat CPU 0 instructions: 100000001 cycles: 39381569 heartbeat IPC: 2.544 cumulative IPC: 2.53926 (Simulation time: 0 hr 6 min 11 sec) 
Heartbeat CPU 0 instructions: 110000002 cycles: 43320224 heartbeat IPC: 2.53894 cumulative IPC: 2.53923 (Simulation time: 0 hr 6 min 48 sec) 
Heartbeat CPU 0 instructions: 120000004 cycles: 47260821 heartbeat IPC: 2.53769 cumulative IPC: 2.5391 (Simulation time: 0 hr 7 min 25 sec) 
Heartbeat CPU 0 instructions: 130000004 cycles: 51197180 heartbeat IPC: 2.54042 cumulative IPC: 2.5392 (Simulation time: 0 hr 8 min 1 sec) 
Heartbeat CPU 0 instructions: 140000000 cycles: 55133043 heartbeat IPC: 2.54074 cumulative IPC: 2.53931 (Simulation time: 0 hr 8 min 38 sec) 
Heartbeat CPU 0 instructions: 150000002 cycles: 59068265 heartbeat IPC: 2.54115 cumulative IPC: 2.53943 (Simulation time: 0 hr 9 min 15 sec) 
Heartbeat CPU 0 instructions: 160000000 cycles: 63007513 heartbeat IPC: 2.53856 cumulative IPC: 2.53938 (Simulation time: 0 hr 9 min 52 sec) 
Heartbeat CPU 0 instructions: 170000000 cycles: 66939650 heartbeat IPC: 2.54315 cumulative IPC: 2.5396 (Simulation time: 0 hr 10 min 29 sec) 
Heartbeat CPU 0 instructions: 180000000 cycles: 70878428 heartbeat IPC: 2.53886 cumulative IPC: 2.53956 (Simulation time: 0 hr 11 min 6 sec) 
Heartbeat CPU 0 instructions: 190000001 cycles: 74815859 heartbeat IPC: 2.53973 cumulative IPC: 2.53957 (Simulation time: 0 hr 11 min 43 sec) 
Heartbeat CPU 0 instructions: 200000002 cycles: 78742725 heartbeat IPC: 2.54656 cumulative IPC: 2.53992 (Simulation time: 0 hr 12 min 19 sec) 

Warmup complete CPU 0 instructions: 200000002 cycles: 78742725 (Simulation time: 0 hr 12 min 19 sec) 

Heartbeat CPU 0 instructions: 210000002 cycles: 82727454 heartbeat IPC: 2.50958 cumulative IPC: 2.50958 (Simulation time: 0 hr 13 min 1 sec) 
Heartbeat CPU 0 instructions: 220000003 cycles: 86740112 heartbeat IPC: 2.49211 cumulative IPC: 2.50082 (Simulation time: 0 hr 13 min 43 sec) 
Heartbeat CPU 0 instructions: 230000000 cycles: 90752481 heartbeat IPC: 2.49229 cumulative IPC: 2.49797 (Simulation time: 0 hr 14 min 24 sec) 
Heartbeat CPU 0 instructions: 240000000 cycles: 94763567 heartbeat IPC: 2.49309 cumulative IPC: 2.49675 (Simulation time: 0 hr 15 min 6 sec) 
Heartbeat CPU 0 instructions: 250000002 cycles: 98775117 heartbeat IPC: 2.4928 cumulative IPC: 2.49596 (Simulation time: 0 hr 15 min 48 sec) 
Heartbeat CPU 0 instructions: 260000002 cycles: 102787669 heartbeat IPC: 2.49218 cumulative IPC: 2.49533 (Simulation time: 0 hr 16 min 29 sec) 
Heartbeat CPU 0 instructions: 270000003 cycles: 106820108 heartbeat IPC: 2.47989 cumulative IPC: 2.49311 (Simulation time: 0 hr 17 min 11 sec) 
Heartbeat CPU 0 instructions: 280000003 cycles: 110805635 heartbeat IPC: 2.50908 cumulative IPC: 2.49509 (Simulation time: 0 hr 17 min 53 sec) 
Heartbeat CPU 0 instructions: 290000002 cycles: 114820133 heartbeat IPC: 2.49097 cumulative IPC: 2.49464 (Simulation time: 0 hr 18 min 36 sec) 
Heartbeat CPU 0 instructions: 300000003 cycles: 118833017 heartbeat IPC: 2.49197 cumulative IPC: 2.49437 (Simulation time: 0 hr 19 min 19 sec) 
Heartbeat CPU 0 instructions: 310000004 cycles: 122844350 heartbeat IPC: 2.49294 cumulative IPC: 2.49424 (Simulation time: 0 hr 20 min 1 sec) 
Heartbeat CPU 0 instructions: 320000004 cycles: 126896912 heartbeat IPC: 2.46757 cumulative IPC: 2.492 (Simulation time: 0 hr 20 min 42 sec) 
Heartbeat CPU 0 instructions: 330000002 cycles: 130882119 heartbeat IPC: 2.50928 cumulative IPC: 2.49332 (Simulation time: 0 hr 21 min 24 sec) 
Heartbeat CPU 0 instructions: 340000002 cycles: 134893957 heartbeat IPC: 2.49262 cumulative IPC: 2.49327 (Simulation time: 0 hr 22 min 5 sec) 
Heartbeat CPU 0 instructions: 350000002 cycles: 138905666 heartbeat IPC: 2.4927 cumulative IPC: 2.49323 (Simulation time: 0 hr 22 min 47 sec) 
Heartbeat CPU 0 instructions: 360000004 cycles: 142918398 heartbeat IPC: 2.49207 cumulative IPC: 2.49316 (Simulation time: 0 hr 23 min 28 sec) 
Heartbeat CPU 0 instructions: 370000004 cycles: 146933383 heartbeat IPC: 2.49067 cumulative IPC: 2.49301 (Simulation time: 0 hr 24 min 10 sec) 
Heartbeat CPU 0 instructions: 380000003 cycles: 150948489 heartbeat IPC: 2.49059 cumulative IPC: 2.49288 (Simulation time: 0 hr 24 min 51 sec) 
Heartbeat CPU 0 instructions: 390000003 cycles: 154963472 heartbeat IPC: 2.49067 cumulative IPC: 2.49276 (Simulation time: 0 hr 25 min 33 sec) 
Heartbeat CPU 0 instructions: 400000004 cycles: 158980077 heartbeat IPC: 2.48967 cumulative IPC: 2.4926 (Simulation time: 0 hr 26 min 14 sec) 
Heartbeat CPU 0 instructions: 410000000 cycles: 162966300 heartbeat IPC: 2.50864 cumulative IPC: 2.49336 (Simulation time: 0 hr 26 min 56 sec) 
Heartbeat CPU 0 instructions: 420000002 cycles: 166996350 heartbeat IPC: 2.48136 cumulative IPC: 2.49282 (Simulation time: 0 hr 27 min 38 sec) 
Heartbeat CPU 0 instructions: 430000001 cycles: 171007906 heartbeat IPC: 2.4928 cumulative IPC: 2.49281 (Simulation time: 0 hr 28 min 19 sec) 
Heartbeat CPU 0 instructions: 440000002 cycles: 175019572 heartbeat IPC: 2.49273 cumulative IPC: 2.49281 (Simulation time: 0 hr 29 min 1 sec) 
Heartbeat CPU 0 instructions: 450000004 cycles: 179036457 heartbeat IPC: 2.48949 cumulative IPC: 2.49268 (Simulation time: 0 hr 29 min 43 sec) 
Heartbeat CPU 0 instructions: 460000000 cycles: 183062841 heartbeat IPC: 2.48362 cumulative IPC: 2.49233 (Simulation time: 0 hr 30 min 24 sec) 
Heartbeat CPU 0 instructions: 470000000 cycles: 187074495 heartbeat IPC: 2.49274 cumulative IPC: 2.49234 (Simulation time: 0 hr 31 min 6 sec) 
Heartbeat CPU 0 instructions: 480000003 cycles: 191085220 heartbeat IPC: 2.49332 cumulative IPC: 2.49238 (Simulation time: 0 hr 31 min 47 sec) 
Heartbeat CPU 0 instructions: 490000002 cycles: 195096087 heartbeat IPC: 2.49323 cumulative IPC: 2.49241 (Simulation time: 0 hr 32 min 29 sec) 
Heartbeat CPU 0 instructions: 500000003 cycles: 199116460 heartbeat IPC: 2.48733 cumulative IPC: 2.49224 (Simulation time: 0 hr 33 min 10 sec) 
Heartbeat CPU 0 instructions: 510000000 cycles: 203137844 heartbeat IPC: 2.48671 cumulative IPC: 2.49206 (Simulation time: 0 hr 33 min 52 sec) 
Heartbeat CPU 0 instructions: 520000000 cycles: 207150798 heartbeat IPC: 2.49193 cumulative IPC: 2.49206 (Simulation time: 0 hr 34 min 33 sec) 
Heartbeat CPU 0 instructions: 530000001 cycles: 211162275 heartbeat IPC: 2.49285 cumulative IPC: 2.49208 (Simulation time: 0 hr 35 min 15 sec) 
Heartbeat CPU 0 instructions: 540000002 cycles: 215172211 heartbeat IPC: 2.49381 cumulative IPC: 2.49213 (Simulation time: 0 hr 35 min 57 sec) 
Heartbeat CPU 0 instructions: 550000004 cycles: 219205559 heartbeat IPC: 2.47933 cumulative IPC: 2.49176 (Simulation time: 0 hr 36 min 38 sec) 
Heartbeat CPU 0 instructions: 560000003 cycles: 223217982 heartbeat IPC: 2.49226 cumulative IPC: 2.49178 (Simulation time: 0 hr 37 min 20 sec) 
Heartbeat CPU 0 instructions: 570000000 cycles: 227233141 heartbeat IPC: 2.49056 cumulative IPC: 2.49174 (Simulation time: 0 hr 38 min 2 sec) 
Heartbeat CPU 0 instructions: 580000002 cycles: 231244858 heartbeat IPC: 2.4927 cumulative IPC: 2.49177 (Simulation time: 0 hr 38 min 45 sec) 
Heartbeat CPU 0 instructions: 590000002 cycles: 235257725 heartbeat IPC: 2.49198 cumulative IPC: 2.49177 (Simulation time: 0 hr 39 min 26 sec) 
Heartbeat CPU 0 instructions: 600000001 cycles: 239269805 heartbeat IPC: 2.49247 cumulative IPC: 2.49179 (Simulation time: 0 hr 40 min 8 sec) 
Heartbeat CPU 0 instructions: 610000000 cycles: 243281607 heartbeat IPC: 2.49265 cumulative IPC: 2.49181 (Simulation time: 0 hr 40 min 49 sec) 
Heartbeat CPU 0 instructions: 620000000 cycles: 247293758 heartbeat IPC: 2.49243 cumulative IPC: 2.49183 (Simulation time: 0 hr 41 min 31 sec) 
Heartbeat CPU 0 instructions: 630000001 cycles: 251305442 heartbeat IPC: 2.49272 cumulative IPC: 2.49185 (Simulation time: 0 hr 42 min 12 sec) 
Heartbeat CPU 0 instructions: 640000004 cycles: 255317899 heartbeat IPC: 2.49224 cumulative IPC: 2.49186 (Simulation time: 0 hr 42 min 54 sec) 
Heartbeat CPU 0 instructions: 650000001 cycles: 259329787 heartbeat IPC: 2.49259 cumulative IPC: 2.49187 (Simulation time: 0 hr 43 min 36 sec) 
Heartbeat CPU 0 instructions: 660000004 cycles: 263342522 heartbeat IPC: 2.49207 cumulative IPC: 2.49188 (Simulation time: 0 hr 44 min 18 sec) 
Heartbeat CPU 0 instructions: 670000001 cycles: 267355494 heartbeat IPC: 2.49192 cumulative IPC: 2.49188 (Simulation time: 0 hr 44 min 59 sec) 
Heartbeat CPU 0 instructions: 680000001 cycles: 271367639 heartbeat IPC: 2.49243 cumulative IPC: 2.49189 (Simulation time: 0 hr 45 min 41 sec) 
Heartbeat CPU 0 instructions: 690000001 cycles: 275384196 heartbeat IPC: 2.48969 cumulative IPC: 2.49184 (Simulation time: 0 hr 46 min 22 sec) 
Heartbeat CPU 0 instructions: 700000003 cycles: 279396557 heartbeat IPC: 2.4923 cumulative IPC: 2.49185 (Simulation time: 0 hr 47 min 4 sec) 
Finished CPU 0 instructions: 500000001 cycles: 200653832 cumulative IPC: 2.49185 (Simulation time: 0 hr 47 min 4 sec) 

ChampSim completed all CPUs

Region of Interest Statistics

CPU 0 cumulative IPC: 2.49185 instructions: 500000001 cycles: 200653832
cpu0_L1I TOTAL     ACCESS:     391680  HIT:     391675  MISS:          5
cpu0_L1I LOAD      ACCESS:     391680  HIT:     391675  MISS:          5
cpu0_L1I RFO       ACCESS:          0  HIT:          0  MISS:          0
cpu0_L1I PREFETCH  ACCESS:          0  HIT:          0  MISS:          0
cpu0_L1I WRITEBACK ACCESS:          0  HIT:          0  MISS:          0
cpu0_L1I TRANSLATION ACCESS:          0  HIT:          0  MISS:          0
cpu0_L1I PREFETCH  REQUESTED:          0  ISSUED:          0  USEFUL:          0  USELESS:          0
cpu0_L1I AVERAGE MISS LATENCY: 112.2 cycles
cpu0_DTLB TOTAL     ACCESS:  184305504  HIT:  184282349  MISS:      23155
cpu0_DTLB LOAD      ACCESS:  146985838  HIT:  146982255  MISS:       3583
cpu0_DTLB RFO       ACCESS:   37319666  HIT:   37300094  MISS:      19572
cpu0_DTLB PREFETCH  ACCESS:          0  HIT:          0  MISS:          0
cpu0_DTLB WRITEBACK ACCESS:          0  HIT:          0  MISS:          0
cpu0_DTLB TRANSLATION ACCESS:          0  HIT:          0  MISS:          0
cpu0_DTLB PREFETCH  REQUESTED:          0  ISSUED:          0  USEFUL:          0  USELESS:          0
cpu0_DTLB AVERAGE MISS LATENCY: 9.08011 cycles
cpu0_ITLB TOTAL     ACCESS:    8551940  HIT:    8551940  MISS:          0
cpu0_ITLB LOAD      ACCESS:    8551940  HIT:    8551940  MISS:          0
cpu0_ITLB RFO       ACCESS:          0  HIT:          0  MISS:          0
cpu0_ITLB PREFETCH  ACCESS:          0  HIT:          0  MISS:          0
cpu0_ITLB WRITEBACK ACCESS:          0  HIT:          0  MISS:          0
cpu0_ITLB TRANSLATION ACCESS:          0  HIT:          0  MISS:          0
cpu0_ITLB PREFETCH  REQUESTED:          0  ISSUED:          0  USEFUL:          0  USELESS:          0
cpu0_ITLB AVERAGE MISS LATENCY: -nan cycles
cpu0_STLB TOTAL     ACCESS:      23155  HIT:      23147  MISS:          8
cpu0_STLB LOAD      ACCESS:       3583  HIT:       3576  MISS:          7
cpu0_STLB RFO       ACCESS:      19572  HIT:      19571  MISS:          1
cpu0_STLB PREFETCH  ACCESS:          0  HIT:          0  MISS:          0
cpu0_STLB WRITEBACK ACCESS:          0  HIT:          0  MISS:          0
cpu0_STLB TRANSLATION ACCESS:          0  HIT:          0  MISS:          0
cpu0_STLB PREFETCH  REQUESTED:          0  ISSUED:          0  USEFUL:          0  USELESS:          0
cpu0_STLB AVERAGE MISS LATENCY: 213.5 cycles
cpu0_L1D TOTAL     ACCESS:  180664532  HIT:  180483462  MISS:     181070
cpu0_L1D LOAD      ACCESS:  149374958  HIT:  149371301  MISS:       3657
cpu0_L1D RFO       ACCESS:   31289566  HIT:   31112157  MISS:     177409
cpu0_L1D PREFETCH  ACCESS:          0  HIT:          0  MISS:          0
cpu0_L1D WRITEBACK ACCESS:          0  HIT:          0  MISS:          0
cpu0_L1D TRANSLATION ACCESS:          8  HIT:          4  MISS:          4
cpu0_L1D PREFETCH  REQUESTED:          0  ISSUED:          0  USEFUL:          0  USELESS:          0
cpu0_L1D AVERAGE MISS LATENCY: 11.1636 cycles
cpu0_L2C TOTAL     ACCESS:     359456  HIT:     358784  MISS:        672
cpu0_L2C LOAD      ACCESS:       3662  HIT:       3051  MISS:        611
cpu0_L2C RFO       ACCESS:     177298  HIT:     177237  MISS:         61
cpu0_L2C PREFETCH  ACCESS:          0  HIT:          0  MISS:          0
cpu0_L2C WRITEBACK ACCESS:     178492  HIT:     178492  MISS:          0
cpu0_L2C TRANSLATION ACCESS:          4  HIT:          4  MISS:          0
cpu0_L2C PREFETCH  REQUESTED:          0  ISSUED:          0  USEFUL:          0  USELESS:          0
cpu0_L2C AVERAGE MISS LATENCY: 46.3155 cycles
LLC TOTAL     ACCESS:       1272  HIT:        603  MISS:        669
LLC LOAD      ACCESS:        611  HIT:        543  MISS:         68
LLC RFO       ACCESS:         61  HIT:          1  MISS:         60
LLC PREFETCH  ACCESS:        600  HIT:         59  MISS:        541
LLC WRITEBACK ACCESS:          0  HIT:          0  MISS:          0
LLC TRANSLATION ACCESS:          0  HIT:          0  MISS:          0
LLC PREFETCH  REQUESTED:        611  ISSUED:        611  USEFUL:        554  USELESS:          0
LLC AVERAGE MISS LATENCY: 114.241 cycles

DRAM Statistics
 CHANNEL 0
 RQ ROW_BUFFER_HIT:        317  ROW_BUFFER_MISS:        352
 DBUS AVG_CONGESTED_CYCLE:    3.57407
 WQ ROW_BUFFER_HIT:          0  ROW_BUFFER_MISS:          0  FULL:          0


CPU 0 Branch Prediction Accuracy: 99.1719% MPKI: 0.366124 Average ROB Occupancy at Mispredict: 146.16
Branch type MPKI
BRANCH_DIRECT_JUMP: 6e-06
BRANCH_INDIRECT: 0.00033
BRANCH_CONDITIONAL: 0.365766
BRANCH_DIRECT_CALL: 2e-06
BRANCH_INDIRECT_CALL: 1.8e-05
BRANCH_RETURN: 2e-06

