/home/caslab/workspace/sim/ChampSim/bin/champsim --warmup_instructions 200000000 --simulation_instructions 500000000/ /home/caslab/workspace/sim/traces/speccpu_by_champsim459.GemsFDTD-1418B.champsimtrace.xz
start simulation for 459.GemsFDTD-1418B.champsimtrace.xz

*** ChampSim Multicore Out-of-Order Simulator ***

Warmup Instructions: 200000000
Simulation Instructions: 500000000
Number of CPUs: 1
Off-chip DRAM Size: 4 GiB Channels: 1 Width: 64-bit Data Rate: 3200 MT/s

VirtualMemory physical capacity: 8588881920 num_ppages: 2096895
VirtualMemory page size: 4096 log2_page_size: 12

CPU 0 runs /home/caslab/workspace/sim/traces/speccpu_by_champsim/459.GemsFDTD-1418B.champsimtrace.xz
CPU 0 Bimodal branch predictor
Basic BTB sets: 1024 ways: 8 indirect buffer size: 4096 RAS size: 64
LLC next line prefetcher
WARNING: The extended signature CACHE::prefetch_line(ip, base_addr, pf_addr, fill_this_level, prefetch_metadata) is deprecated.
WARNING: Use CACHE::prefetch_line(pf_addr, fill_this_level, prefetch_metadata) instead.
Heartbeat CPU 0 instructions: 10000003 cycles: 5683773 heartbeat IPC: 1.7594 cumulative IPC: 1.7594 (Simulation time: 0 hr 1 min 12 sec) 
Heartbeat CPU 0 instructions: 20000001 cycles: 11367432 heartbeat IPC: 1.75943 cumulative IPC: 1.75941 (Simulation time: 0 hr 2 min 23 sec) 
Heartbeat CPU 0 instructions: 30000002 cycles: 17051089 heartbeat IPC: 1.75943 cumulative IPC: 1.75942 (Simulation time: 0 hr 3 min 34 sec) 
Heartbeat CPU 0 instructions: 40000000 cycles: 22739651 heartbeat IPC: 1.75791 cumulative IPC: 1.75904 (Simulation time: 0 hr 4 min 46 sec) 
Heartbeat CPU 0 instructions: 50000002 cycles: 28423519 heartbeat IPC: 1.75937 cumulative IPC: 1.75911 (Simulation time: 0 hr 5 min 59 sec) 
Heartbeat CPU 0 instructions: 60000000 cycles: 34107396 heartbeat IPC: 1.75936 cumulative IPC: 1.75915 (Simulation time: 0 hr 7 min 13 sec) 
Heartbeat CPU 0 instructions: 70000000 cycles: 39791249 heartbeat IPC: 1.75937 cumulative IPC: 1.75918 (Simulation time: 0 hr 8 min 26 sec) 
Heartbeat CPU 0 instructions: 80000003 cycles: 45475129 heartbeat IPC: 1.75936 cumulative IPC: 1.7592 (Simulation time: 0 hr 9 min 39 sec) 
Heartbeat CPU 0 instructions: 90000000 cycles: 51158997 heartbeat IPC: 1.75936 cumulative IPC: 1.75922 (Simulation time: 0 hr 10 min 53 sec) 
Heartbeat CPU 0 instructions: 100000001 cycles: 56842875 heartbeat IPC: 1.75936 cumulative IPC: 1.75924 (Simulation time: 0 hr 12 min 7 sec) 
Heartbeat CPU 0 instructions: 110000001 cycles: 62526747 heartbeat IPC: 1.75936 cumulative IPC: 1.75925 (Simulation time: 0 hr 13 min 20 sec) 
Heartbeat CPU 0 instructions: 120000000 cycles: 68210617 heartbeat IPC: 1.75936 cumulative IPC: 1.75926 (Simulation time: 0 hr 14 min 33 sec) 
Heartbeat CPU 0 instructions: 130000003 cycles: 73894491 heartbeat IPC: 1.75936 cumulative IPC: 1.75927 (Simulation time: 0 hr 15 min 46 sec) 
Heartbeat CPU 0 instructions: 140000001 cycles: 79895010 heartbeat IPC: 1.66652 cumulative IPC: 1.7523 (Simulation time: 0 hr 17 min 1 sec) 
Heartbeat CPU 0 instructions: 150000002 cycles: 85607959 heartbeat IPC: 1.75041 cumulative IPC: 1.75217 (Simulation time: 0 hr 18 min 14 sec) 
Heartbeat CPU 0 instructions: 160000001 cycles: 91291837 heartbeat IPC: 1.75936 cumulative IPC: 1.75262 (Simulation time: 0 hr 19 min 28 sec) 
Heartbeat CPU 0 instructions: 170000002 cycles: 96975697 heartbeat IPC: 1.75937 cumulative IPC: 1.75302 (Simulation time: 0 hr 20 min 41 sec) 
Heartbeat CPU 0 instructions: 180000000 cycles: 102659579 heartbeat IPC: 1.75936 cumulative IPC: 1.75337 (Simulation time: 0 hr 21 min 55 sec) 
Heartbeat CPU 0 instructions: 190000000 cycles: 108343451 heartbeat IPC: 1.75936 cumulative IPC: 1.75368 (Simulation time: 0 hr 23 min 8 sec) 
Heartbeat CPU 0 instructions: 200000002 cycles: 114027329 heartbeat IPC: 1.75936 cumulative IPC: 1.75397 (Simulation time: 0 hr 24 min 23 sec) 

Warmup complete CPU 0 instructions: 200000002 cycles: 114027329 (Simulation time: 0 hr 24 min 23 sec) 

Heartbeat CPU 0 instructions: 210000001 cycles: 122880663 heartbeat IPC: 1.12952 cumulative IPC: 1.12952 (Simulation time: 0 hr 25 min 37 sec) 
Heartbeat CPU 0 instructions: 220000001 cycles: 131837299 heartbeat IPC: 1.11649 cumulative IPC: 1.12297 (Simulation time: 0 hr 26 min 53 sec) 
Heartbeat CPU 0 instructions: 230000004 cycles: 140898436 heartbeat IPC: 1.10361 cumulative IPC: 1.11644 (Simulation time: 0 hr 28 min 8 sec) 
Heartbeat CPU 0 instructions: 240000000 cycles: 150037312 heartbeat IPC: 1.09423 cumulative IPC: 1.1108 (Simulation time: 0 hr 29 min 24 sec) 
Heartbeat CPU 0 instructions: 250000003 cycles: 159267061 heartbeat IPC: 1.08345 cumulative IPC: 1.10522 (Simulation time: 0 hr 30 min 39 sec) 
Heartbeat CPU 0 instructions: 260000004 cycles: 170022807 heartbeat IPC: 0.929736 cumulative IPC: 1.07152 (Simulation time: 0 hr 31 min 38 sec) 
Heartbeat CPU 0 instructions: 270000000 cycles: 183423647 heartbeat IPC: 0.746222 cumulative IPC: 1.0087 (Simulation time: 0 hr 32 min 47 sec) 
Heartbeat CPU 0 instructions: 280000004 cycles: 192703722 heartbeat IPC: 1.07758 cumulative IPC: 1.01682 (Simulation time: 0 hr 33 min 39 sec) 
Heartbeat CPU 0 instructions: 290000000 cycles: 198237374 heartbeat IPC: 1.80712 cumulative IPC: 1.06876 (Simulation time: 0 hr 34 min 16 sec) 
Heartbeat CPU 0 instructions: 300000003 cycles: 202989808 heartbeat IPC: 2.10419 cumulative IPC: 1.12407 (Simulation time: 0 hr 34 min 53 sec) 
Heartbeat CPU 0 instructions: 310000000 cycles: 209152125 heartbeat IPC: 1.62277 cumulative IPC: 1.15638 (Simulation time: 0 hr 35 min 31 sec) 
Heartbeat CPU 0 instructions: 320000003 cycles: 226157085 heartbeat IPC: 0.588064 cumulative IPC: 1.07019 (Simulation time: 0 hr 37 min 11 sec) 
Heartbeat CPU 0 instructions: 330000001 cycles: 242329496 heartbeat IPC: 0.618337 cumulative IPC: 1.01323 (Simulation time: 0 hr 38 min 50 sec) 
Heartbeat CPU 0 instructions: 340000002 cycles: 252956205 heartbeat IPC: 0.941025 cumulative IPC: 1.00771 (Simulation time: 0 hr 40 min 5 sec) 
Heartbeat CPU 0 instructions: 350000001 cycles: 259297275 heartbeat IPC: 1.57702 cumulative IPC: 1.03256 (Simulation time: 0 hr 41 min 4 sec) 
Heartbeat CPU 0 instructions: 360000002 cycles: 265917644 heartbeat IPC: 1.51049 cumulative IPC: 1.05339 (Simulation time: 0 hr 42 min 4 sec) 
Heartbeat CPU 0 instructions: 370000001 cycles: 271443587 heartbeat IPC: 1.80965 cumulative IPC: 1.07994 (Simulation time: 0 hr 42 min 59 sec) 
Heartbeat CPU 0 instructions: 380000003 cycles: 277482544 heartbeat IPC: 1.65592 cumulative IPC: 1.10122 (Simulation time: 0 hr 43 min 57 sec) 
Heartbeat CPU 0 instructions: 390000003 cycles: 283519113 heartbeat IPC: 1.65657 cumulative IPC: 1.121 (Simulation time: 0 hr 44 min 55 sec) 
Heartbeat CPU 0 instructions: 400000003 cycles: 289316224 heartbeat IPC: 1.725 cumulative IPC: 1.14097 (Simulation time: 0 hr 45 min 52 sec) 
Heartbeat CPU 0 instructions: 410000000 cycles: 295006602 heartbeat IPC: 1.75735 cumulative IPC: 1.16035 (Simulation time: 0 hr 46 min 49 sec) 
Heartbeat CPU 0 instructions: 420000000 cycles: 300733247 heartbeat IPC: 1.74622 cumulative IPC: 1.17832 (Simulation time: 0 hr 47 min 45 sec) 
Heartbeat CPU 0 instructions: 430000000 cycles: 306525315 heartbeat IPC: 1.7265 cumulative IPC: 1.19482 (Simulation time: 0 hr 48 min 41 sec) 
Heartbeat CPU 0 instructions: 440000002 cycles: 312361910 heartbeat IPC: 1.71333 cumulative IPC: 1.21008 (Simulation time: 0 hr 49 min 37 sec) 
Heartbeat CPU 0 instructions: 450000000 cycles: 317820797 heartbeat IPC: 1.83187 cumulative IPC: 1.22673 (Simulation time: 0 hr 50 min 32 sec) 
Heartbeat CPU 0 instructions: 460000000 cycles: 323524081 heartbeat IPC: 1.75338 cumulative IPC: 1.24107 (Simulation time: 0 hr 51 min 28 sec) 
Heartbeat CPU 0 instructions: 470000000 cycles: 329237715 heartbeat IPC: 1.7502 cumulative IPC: 1.25459 (Simulation time: 0 hr 52 min 25 sec) 
Heartbeat CPU 0 instructions: 480000001 cycles: 335019319 heartbeat IPC: 1.72962 cumulative IPC: 1.26701 (Simulation time: 0 hr 53 min 22 sec) 
Heartbeat CPU 0 instructions: 490000003 cycles: 340681285 heartbeat IPC: 1.76617 cumulative IPC: 1.27948 (Simulation time: 0 hr 54 min 19 sec) 
Heartbeat CPU 0 instructions: 500000002 cycles: 346410501 heartbeat IPC: 1.74544 cumulative IPC: 1.29097 (Simulation time: 0 hr 55 min 15 sec) 
Heartbeat CPU 0 instructions: 510000001 cycles: 352200340 heartbeat IPC: 1.72716 cumulative IPC: 1.30157 (Simulation time: 0 hr 56 min 10 sec) 
Heartbeat CPU 0 instructions: 520000004 cycles: 357993299 heartbeat IPC: 1.72623 cumulative IPC: 1.31166 (Simulation time: 0 hr 57 min 6 sec) 
Heartbeat CPU 0 instructions: 530000000 cycles: 363432285 heartbeat IPC: 1.83858 cumulative IPC: 1.32315 (Simulation time: 0 hr 58 min 1 sec) 
Heartbeat CPU 0 instructions: 540000002 cycles: 369103275 heartbeat IPC: 1.76336 cumulative IPC: 1.33294 (Simulation time: 0 hr 58 min 57 sec) 
Heartbeat CPU 0 instructions: 550000004 cycles: 374812819 heartbeat IPC: 1.75145 cumulative IPC: 1.3421 (Simulation time: 0 hr 59 min 54 sec) 
Heartbeat CPU 0 instructions: 560000000 cycles: 380472032 heartbeat IPC: 1.76703 cumulative IPC: 1.35112 (Simulation time: 1 hr 0 min 50 sec) 
Heartbeat CPU 0 instructions: 570000002 cycles: 386058688 heartbeat IPC: 1.78998 cumulative IPC: 1.36014 (Simulation time: 1 hr 1 min 46 sec) 
Heartbeat CPU 0 instructions: 580000003 cycles: 391763321 heartbeat IPC: 1.75296 cumulative IPC: 1.36821 (Simulation time: 1 hr 2 min 42 sec) 
Heartbeat CPU 0 instructions: 590000000 cycles: 397534356 heartbeat IPC: 1.73279 cumulative IPC: 1.37563 (Simulation time: 1 hr 3 min 37 sec) 
Heartbeat CPU 0 instructions: 600000004 cycles: 403293793 heartbeat IPC: 1.73628 cumulative IPC: 1.38281 (Simulation time: 1 hr 4 min 33 sec) 
Heartbeat CPU 0 instructions: 610000000 cycles: 408794064 heartbeat IPC: 1.81809 cumulative IPC: 1.39093 (Simulation time: 1 hr 5 min 28 sec) 
Heartbeat CPU 0 instructions: 620000001 cycles: 414501986 heartbeat IPC: 1.75195 cumulative IPC: 1.39779 (Simulation time: 1 hr 6 min 24 sec) 
Heartbeat CPU 0 instructions: 630000003 cycles: 424814486 heartbeat IPC: 0.969697 cumulative IPC: 1.38358 (Simulation time: 1 hr 7 min 36 sec) 
Heartbeat CPU 0 instructions: 640000002 cycles: 442742650 heartbeat IPC: 0.557782 cumulative IPC: 1.33854 (Simulation time: 1 hr 9 min 9 sec) 
Heartbeat CPU 0 instructions: 650000002 cycles: 458830476 heartbeat IPC: 0.621588 cumulative IPC: 1.30509 (Simulation time: 1 hr 10 min 35 sec) 
Heartbeat CPU 0 instructions: 660000003 cycles: 472665553 heartbeat IPC: 0.722801 cumulative IPC: 1.28263 (Simulation time: 1 hr 11 min 52 sec) 
Heartbeat CPU 0 instructions: 670000003 cycles: 487772898 heartbeat IPC: 0.66193 cumulative IPC: 1.25754 (Simulation time: 1 hr 13 min 14 sec) 
Heartbeat CPU 0 instructions: 680000001 cycles: 503594376 heartbeat IPC: 0.632052 cumulative IPC: 1.23214 (Simulation time: 1 hr 14 min 38 sec) 
Heartbeat CPU 0 instructions: 690000002 cycles: 520701853 heartbeat IPC: 0.58454 cumulative IPC: 1.20489 (Simulation time: 1 hr 16 min 8 sec) 
Heartbeat CPU 0 instructions: 700000000 cycles: 539216165 heartbeat IPC: 0.540123 cumulative IPC: 1.17595 (Simulation time: 1 hr 17 min 43 sec) 
Finished CPU 0 instructions: 500000003 cycles: 425188837 cumulative IPC: 1.17595 (Simulation time: 1 hr 17 min 43 sec) 

ChampSim completed all CPUs

Region of Interest Statistics

CPU 0 cumulative IPC: 1.17595 instructions: 500000003 cycles: 425188837
cpu0_L1I TOTAL     ACCESS:   42774775  HIT:   42774157  MISS:        618
cpu0_L1I LOAD      ACCESS:   42774775  HIT:   42774157  MISS:        618
cpu0_L1I RFO       ACCESS:          0  HIT:          0  MISS:          0
cpu0_L1I PREFETCH  ACCESS:          0  HIT:          0  MISS:          0
cpu0_L1I WRITEBACK ACCESS:          0  HIT:          0  MISS:          0
cpu0_L1I TRANSLATION ACCESS:          0  HIT:          0  MISS:          0
cpu0_L1I PREFETCH  REQUESTED:          0  ISSUED:          0  USEFUL:          0  USELESS:          0
cpu0_L1I AVERAGE MISS LATENCY: 254.095 cycles
cpu0_DTLB TOTAL     ACCESS:  178595339  HIT:  174482780  MISS:    4112559
cpu0_DTLB LOAD      ACCESS:  159864301  HIT:  155755399  MISS:    4108902
cpu0_DTLB RFO       ACCESS:   18731038  HIT:   18727381  MISS:       3657
cpu0_DTLB PREFETCH  ACCESS:          0  HIT:          0  MISS:          0
cpu0_DTLB WRITEBACK ACCESS:          0  HIT:          0  MISS:          0
cpu0_DTLB TRANSLATION ACCESS:          0  HIT:          0  MISS:          0
cpu0_DTLB PREFETCH  REQUESTED:          0  ISSUED:          0  USEFUL:          0  USELESS:          0
cpu0_DTLB AVERAGE MISS LATENCY: 19.8825 cycles
cpu0_ITLB TOTAL     ACCESS:   10629852  HIT:   10629823  MISS:         29
cpu0_ITLB LOAD      ACCESS:   10629852  HIT:   10629823  MISS:         29
cpu0_ITLB RFO       ACCESS:          0  HIT:          0  MISS:          0
cpu0_ITLB PREFETCH  ACCESS:          0  HIT:          0  MISS:          0
cpu0_ITLB WRITEBACK ACCESS:          0  HIT:          0  MISS:          0
cpu0_ITLB TRANSLATION ACCESS:          0  HIT:          0  MISS:          0
cpu0_ITLB PREFETCH  REQUESTED:          0  ISSUED:          0  USEFUL:          0  USELESS:          0
cpu0_ITLB AVERAGE MISS LATENCY: 206.724 cycles
cpu0_STLB TOTAL     ACCESS:    4112588  HIT:    3753680  MISS:     358908
cpu0_STLB LOAD      ACCESS:    4108931  HIT:    3751798  MISS:     357133
cpu0_STLB RFO       ACCESS:       3657  HIT:       1882  MISS:       1775
cpu0_STLB PREFETCH  ACCESS:          0  HIT:          0  MISS:          0
cpu0_STLB WRITEBACK ACCESS:          0  HIT:          0  MISS:          0
cpu0_STLB TRANSLATION ACCESS:          0  HIT:          0  MISS:          0
cpu0_STLB PREFETCH  REQUESTED:          0  ISSUED:          0  USEFUL:          0  USELESS:          0
cpu0_STLB AVERAGE MISS LATENCY: 124.614 cycles
cpu0_L1D TOTAL     ACCESS:  212857181  HIT:  208844656  MISS:    4012525
cpu0_L1D LOAD      ACCESS:  187668321  HIT:  183687345  MISS:    3980976
cpu0_L1D RFO       ACCESS:   24868741  HIT:   24837503  MISS:      31238
cpu0_L1D PREFETCH  ACCESS:          0  HIT:          0  MISS:          0
cpu0_L1D WRITEBACK ACCESS:          0  HIT:          0  MISS:          0
cpu0_L1D TRANSLATION ACCESS:     320119  HIT:     319808  MISS:        311
cpu0_L1D PREFETCH  REQUESTED:          0  ISSUED:          0  USEFUL:          0  USELESS:          0
cpu0_L1D AVERAGE MISS LATENCY: 234.114 cycles
cpu0_L2C TOTAL     ACCESS:    5062144  HIT:    2375658  MISS:    2686486
cpu0_L2C LOAD      ACCESS:    3981594  HIT:    1314215  MISS:    2667379
cpu0_L2C RFO       ACCESS:      31238  HIT:      12186  MISS:      19052
cpu0_L2C PREFETCH  ACCESS:          0  HIT:          0  MISS:          0
cpu0_L2C WRITEBACK ACCESS:    1049001  HIT:    1048984  MISS:         17
cpu0_L2C TRANSLATION ACCESS:        311  HIT:        273  MISS:         38
cpu0_L2C PREFETCH  REQUESTED:          0  ISSUED:          0  USEFUL:          0  USELESS:          0
cpu0_L2C AVERAGE MISS LATENCY: 333.273 cycles
LLC TOTAL     ACCESS:    5440029  HIT:    1090671  MISS:    4349358
LLC LOAD      ACCESS:    2667379  HIT:    1082590  MISS:    1584789
LLC RFO       ACCESS:      19052  HIT:          2  MISS:      19050
LLC PREFETCH  ACCESS:    1603967  HIT:       8060  MISS:    1595907
LLC WRITEBACK ACCESS:    1149593  HIT:         19  MISS:    1149574
LLC TRANSLATION ACCESS:         38  HIT:          0  MISS:         38
LLC PREFETCH  REQUESTED:    2667379  ISSUED:    2666676  USEFUL:    2081788  USELESS:     513787
LLC AVERAGE MISS LATENCY: 440.192 cycles

DRAM Statistics
 CHANNEL 0
 RQ ROW_BUFFER_HIT:      57397  ROW_BUFFER_MISS:    3142382
 DBUS AVG_CONGESTED_CYCLE:    3.99362
 WQ ROW_BUFFER_HIT:       8713  ROW_BUFFER_MISS:    1141687  FULL:          0


CPU 0 Branch Prediction Accuracy: 99.649% MPKI: 0.091424 Average ROB Occupancy at Mispredict: 299.937
Branch type MPKI
BRANCH_DIRECT_JUMP: 5e-05
BRANCH_INDIRECT: 6e-06
BRANCH_CONDITIONAL: 0.090972
BRANCH_DIRECT_CALL: 0.0002
BRANCH_INDIRECT_CALL: 0
BRANCH_RETURN: 0.000196

