/home/caslab/workspace/sim/ChampSim/bin/champsim --warmup_instructions 200000000 --simulation_instructions 500000000/ /home/caslab/workspace/sim/traces/speccpu_by_champsim459.GemsFDTD-1320B.champsimtrace.xz
start simulation for 459.GemsFDTD-1320B.champsimtrace.xz

*** ChampSim Multicore Out-of-Order Simulator ***

Warmup Instructions: 200000000
Simulation Instructions: 500000000
Number of CPUs: 1
Off-chip DRAM Size: 4 GiB Channels: 1 Width: 64-bit Data Rate: 3200 MT/s

VirtualMemory physical capacity: 8588881920 num_ppages: 2096895
VirtualMemory page size: 4096 log2_page_size: 12

CPU 0 runs /home/caslab/workspace/sim/traces/speccpu_by_champsim/459.GemsFDTD-1320B.champsimtrace.xz
CPU 0 Bimodal branch predictor
Basic BTB sets: 1024 ways: 8 indirect buffer size: 4096 RAS size: 64
LLC next line prefetcher
WARNING: The extended signature CACHE::prefetch_line(ip, base_addr, pf_addr, fill_this_level, prefetch_metadata) is deprecated.
WARNING: Use CACHE::prefetch_line(pf_addr, fill_this_level, prefetch_metadata) instead.
Heartbeat CPU 0 instructions: 10000001 cycles: 5184425 heartbeat IPC: 1.92885 cumulative IPC: 1.92885 (Simulation time: 0 hr 0 min 59 sec) 
Heartbeat CPU 0 instructions: 20000002 cycles: 10491305 heartbeat IPC: 1.88435 cumulative IPC: 1.90634 (Simulation time: 0 hr 2 min 1 sec) 
Heartbeat CPU 0 instructions: 30000004 cycles: 15833999 heartbeat IPC: 1.87172 cumulative IPC: 1.89466 (Simulation time: 0 hr 3 min 3 sec) 
Heartbeat CPU 0 instructions: 40000004 cycles: 21176650 heartbeat IPC: 1.87173 cumulative IPC: 1.88887 (Simulation time: 0 hr 4 min 5 sec) 
Heartbeat CPU 0 instructions: 50000002 cycles: 26403480 heartbeat IPC: 1.91321 cumulative IPC: 1.89369 (Simulation time: 0 hr 5 min 5 sec) 
Heartbeat CPU 0 instructions: 60000002 cycles: 31566945 heartbeat IPC: 1.93668 cumulative IPC: 1.90072 (Simulation time: 0 hr 6 min 5 sec) 
Heartbeat CPU 0 instructions: 70000000 cycles: 36723441 heartbeat IPC: 1.9393 cumulative IPC: 1.90614 (Simulation time: 0 hr 7 min 5 sec) 
Heartbeat CPU 0 instructions: 80000000 cycles: 41899487 heartbeat IPC: 1.93198 cumulative IPC: 1.90933 (Simulation time: 0 hr 8 min 3 sec) 
Heartbeat CPU 0 instructions: 90000000 cycles: 47101768 heartbeat IPC: 1.92223 cumulative IPC: 1.91076 (Simulation time: 0 hr 9 min 3 sec) 
Heartbeat CPU 0 instructions: 100000003 cycles: 52496547 heartbeat IPC: 1.85364 cumulative IPC: 1.90489 (Simulation time: 0 hr 10 min 6 sec) 
Heartbeat CPU 0 instructions: 110000001 cycles: 57925048 heartbeat IPC: 1.84213 cumulative IPC: 1.89901 (Simulation time: 0 hr 11 min 10 sec) 
Heartbeat CPU 0 instructions: 120000002 cycles: 63353507 heartbeat IPC: 1.84214 cumulative IPC: 1.89413 (Simulation time: 0 hr 12 min 14 sec) 
Heartbeat CPU 0 instructions: 130000000 cycles: 66510121 heartbeat IPC: 3.16795 cumulative IPC: 1.95459 (Simulation time: 0 hr 12 min 45 sec) 
Heartbeat CPU 0 instructions: 140000003 cycles: 69025202 heartbeat IPC: 3.97602 cumulative IPC: 2.02824 (Simulation time: 0 hr 13 min 8 sec) 
Heartbeat CPU 0 instructions: 150000004 cycles: 71540280 heartbeat IPC: 3.97602 cumulative IPC: 2.09672 (Simulation time: 0 hr 13 min 30 sec) 
Heartbeat CPU 0 instructions: 160000003 cycles: 74055358 heartbeat IPC: 3.97602 cumulative IPC: 2.16055 (Simulation time: 0 hr 13 min 53 sec) 
Heartbeat CPU 0 instructions: 170000003 cycles: 76570436 heartbeat IPC: 3.97602 cumulative IPC: 2.22018 (Simulation time: 0 hr 14 min 16 sec) 
Heartbeat CPU 0 instructions: 180000000 cycles: 79085516 heartbeat IPC: 3.97602 cumulative IPC: 2.27602 (Simulation time: 0 hr 14 min 38 sec) 
Heartbeat CPU 0 instructions: 190000001 cycles: 81600605 heartbeat IPC: 3.976 cumulative IPC: 2.32841 (Simulation time: 0 hr 15 min 1 sec) 
Heartbeat CPU 0 instructions: 200000004 cycles: 84115691 heartbeat IPC: 3.97601 cumulative IPC: 2.37768 (Simulation time: 0 hr 15 min 24 sec) 

Warmup complete CPU 0 instructions: 200000004 cycles: 84115691 (Simulation time: 0 hr 15 min 24 sec) 

Heartbeat CPU 0 instructions: 210000000 cycles: 103788766 heartbeat IPC: 0.508309 cumulative IPC: 0.508309 (Simulation time: 0 hr 17 min 2 sec) 
Heartbeat CPU 0 instructions: 220000002 cycles: 123759419 heartbeat IPC: 0.500735 cumulative IPC: 0.504493 (Simulation time: 0 hr 18 min 42 sec) 
Heartbeat CPU 0 instructions: 230000003 cycles: 143941928 heartbeat IPC: 0.495479 cumulative IPC: 0.501452 (Simulation time: 0 hr 20 min 23 sec) 
Heartbeat CPU 0 instructions: 240000000 cycles: 164228991 heartbeat IPC: 0.492925 cumulative IPC: 0.499293 (Simulation time: 0 hr 22 min 4 sec) 
Heartbeat CPU 0 instructions: 250000000 cycles: 184492712 heartbeat IPC: 0.493493 cumulative IPC: 0.498122 (Simulation time: 0 hr 23 min 46 sec) 
Heartbeat CPU 0 instructions: 260000003 cycles: 204737670 heartbeat IPC: 0.49395 cumulative IPC: 0.497422 (Simulation time: 0 hr 25 min 27 sec) 
Heartbeat CPU 0 instructions: 270000000 cycles: 224888083 heartbeat IPC: 0.496268 cumulative IPC: 0.497257 (Simulation time: 0 hr 27 min 7 sec) 
Heartbeat CPU 0 instructions: 280000003 cycles: 245118439 heartbeat IPC: 0.494307 cumulative IPC: 0.496886 (Simulation time: 0 hr 28 min 48 sec) 
Heartbeat CPU 0 instructions: 290000004 cycles: 265394499 heartbeat IPC: 0.493193 cumulative IPC: 0.496473 (Simulation time: 0 hr 30 min 29 sec) 
Heartbeat CPU 0 instructions: 300000004 cycles: 285505362 heartbeat IPC: 0.497244 cumulative IPC: 0.49655 (Simulation time: 0 hr 32 min 10 sec) 
Heartbeat CPU 0 instructions: 310000001 cycles: 305836883 heartbeat IPC: 0.491847 cumulative IPC: 0.496119 (Simulation time: 0 hr 33 min 52 sec) 
Heartbeat CPU 0 instructions: 320000002 cycles: 326100338 heartbeat IPC: 0.493499 cumulative IPC: 0.495899 (Simulation time: 0 hr 35 min 33 sec) 
Heartbeat CPU 0 instructions: 330000001 cycles: 346313635 heartbeat IPC: 0.494724 cumulative IPC: 0.495809 (Simulation time: 0 hr 37 min 14 sec) 
Heartbeat CPU 0 instructions: 340000003 cycles: 366438023 heartbeat IPC: 0.49691 cumulative IPC: 0.495887 (Simulation time: 0 hr 38 min 54 sec) 
Heartbeat CPU 0 instructions: 350000002 cycles: 386773563 heartbeat IPC: 0.49175 cumulative IPC: 0.495609 (Simulation time: 0 hr 40 min 36 sec) 
Heartbeat CPU 0 instructions: 360000001 cycles: 406891714 heartbeat IPC: 0.497064 cumulative IPC: 0.4957 (Simulation time: 0 hr 42 min 16 sec) 
Heartbeat CPU 0 instructions: 370000001 cycles: 426995397 heartbeat IPC: 0.497421 cumulative IPC: 0.495801 (Simulation time: 0 hr 43 min 57 sec) 
Heartbeat CPU 0 instructions: 380000004 cycles: 447288281 heartbeat IPC: 0.492784 cumulative IPC: 0.495632 (Simulation time: 0 hr 45 min 38 sec) 
Heartbeat CPU 0 instructions: 390000001 cycles: 467356951 heartbeat IPC: 0.498289 cumulative IPC: 0.495771 (Simulation time: 0 hr 47 min 19 sec) 
Heartbeat CPU 0 instructions: 400000004 cycles: 487609114 heartbeat IPC: 0.493775 cumulative IPC: 0.495671 (Simulation time: 0 hr 49 min 1 sec) 
Heartbeat CPU 0 instructions: 410000004 cycles: 507826308 heartbeat IPC: 0.494628 cumulative IPC: 0.495621 (Simulation time: 0 hr 50 min 41 sec) 
Heartbeat CPU 0 instructions: 420000002 cycles: 528062440 heartbeat IPC: 0.494165 cumulative IPC: 0.495555 (Simulation time: 0 hr 52 min 22 sec) 
Heartbeat CPU 0 instructions: 430000003 cycles: 548366782 heartbeat IPC: 0.492506 cumulative IPC: 0.495422 (Simulation time: 0 hr 54 min 3 sec) 
Heartbeat CPU 0 instructions: 440000003 cycles: 568606891 heartbeat IPC: 0.494068 cumulative IPC: 0.495365 (Simulation time: 0 hr 55 min 44 sec) 
Heartbeat CPU 0 instructions: 450000003 cycles: 588911112 heartbeat IPC: 0.492508 cumulative IPC: 0.49525 (Simulation time: 0 hr 57 min 26 sec) 
Heartbeat CPU 0 instructions: 460000000 cycles: 609150438 heartbeat IPC: 0.494087 cumulative IPC: 0.495205 (Simulation time: 0 hr 59 min 7 sec) 
Heartbeat CPU 0 instructions: 470000002 cycles: 629322284 heartbeat IPC: 0.495741 cumulative IPC: 0.495225 (Simulation time: 1 hr 0 min 48 sec) 
Heartbeat CPU 0 instructions: 480000003 cycles: 649477899 heartbeat IPC: 0.49614 cumulative IPC: 0.495258 (Simulation time: 1 hr 2 min 29 sec) 
Heartbeat CPU 0 instructions: 490000003 cycles: 669696502 heartbeat IPC: 0.494594 cumulative IPC: 0.495235 (Simulation time: 1 hr 4 min 10 sec) 
Heartbeat CPU 0 instructions: 500000001 cycles: 689806314 heartbeat IPC: 0.49727 cumulative IPC: 0.495302 (Simulation time: 1 hr 5 min 51 sec) 
Heartbeat CPU 0 instructions: 510000004 cycles: 710046860 heartbeat IPC: 0.494058 cumulative IPC: 0.495262 (Simulation time: 1 hr 7 min 33 sec) 
Heartbeat CPU 0 instructions: 520000003 cycles: 730446103 heartbeat IPC: 0.490214 cumulative IPC: 0.495103 (Simulation time: 1 hr 9 min 14 sec) 
Heartbeat CPU 0 instructions: 530000001 cycles: 750715795 heartbeat IPC: 0.493347 cumulative IPC: 0.495049 (Simulation time: 1 hr 10 min 56 sec) 
Heartbeat CPU 0 instructions: 540000004 cycles: 765045736 heartbeat IPC: 0.69784 cumulative IPC: 0.499317 (Simulation time: 1 hr 12 min 27 sec) 
Heartbeat CPU 0 instructions: 550000003 cycles: 777222235 heartbeat IPC: 0.821254 cumulative IPC: 0.504973 (Simulation time: 1 hr 13 min 52 sec) 
Heartbeat CPU 0 instructions: 560000001 cycles: 789398494 heartbeat IPC: 0.82127 cumulative IPC: 0.510434 (Simulation time: 1 hr 15 min 18 sec) 
Heartbeat CPU 0 instructions: 570000002 cycles: 801563655 heartbeat IPC: 0.82202 cumulative IPC: 0.515717 (Simulation time: 1 hr 16 min 43 sec) 
Heartbeat CPU 0 instructions: 580000004 cycles: 813734471 heartbeat IPC: 0.821638 cumulative IPC: 0.52082 (Simulation time: 1 hr 18 min 8 sec) 
Heartbeat CPU 0 instructions: 590000000 cycles: 825928924 heartbeat IPC: 0.820045 cumulative IPC: 0.525739 (Simulation time: 1 hr 19 min 34 sec) 
Heartbeat CPU 0 instructions: 600000000 cycles: 838118564 heartbeat IPC: 0.820369 cumulative IPC: 0.530502 (Simulation time: 1 hr 20 min 59 sec) 
Heartbeat CPU 0 instructions: 610000000 cycles: 850294453 heartbeat IPC: 0.821295 cumulative IPC: 0.535123 (Simulation time: 1 hr 22 min 25 sec) 
Heartbeat CPU 0 instructions: 620000003 cycles: 862469980 heartbeat IPC: 0.82132 cumulative IPC: 0.5396 (Simulation time: 1 hr 23 min 51 sec) 
Heartbeat CPU 0 instructions: 630000000 cycles: 874670026 heartbeat IPC: 0.819669 cumulative IPC: 0.543922 (Simulation time: 1 hr 25 min 16 sec) 
Heartbeat CPU 0 instructions: 640000001 cycles: 886921143 heartbeat IPC: 0.816252 cumulative IPC: 0.548078 (Simulation time: 1 hr 26 min 42 sec) 
Heartbeat CPU 0 instructions: 650000000 cycles: 899202705 heartbeat IPC: 0.814229 cumulative IPC: 0.552088 (Simulation time: 1 hr 28 min 8 sec) 
Heartbeat CPU 0 instructions: 660000000 cycles: 911482438 heartbeat IPC: 0.81435 cumulative IPC: 0.555981 (Simulation time: 1 hr 29 min 33 sec) 
Heartbeat CPU 0 instructions: 670000004 cycles: 923460867 heartbeat IPC: 0.834834 cumulative IPC: 0.55996 (Simulation time: 1 hr 30 min 58 sec) 
Heartbeat CPU 0 instructions: 680000001 cycles: 935974824 heartbeat IPC: 0.799107 cumulative IPC: 0.563473 (Simulation time: 1 hr 32 min 25 sec) 
Heartbeat CPU 0 instructions: 690000003 cycles: 946751740 heartbeat IPC: 0.927909 cumulative IPC: 0.568026 (Simulation time: 1 hr 33 min 45 sec) 
Heartbeat CPU 0 instructions: 700000002 cycles: 957654837 heartbeat IPC: 0.917171 cumulative IPC: 0.572384 (Simulation time: 1 hr 35 min 5 sec) 
Finished CPU 0 instructions: 500000001 cycles: 873539147 cumulative IPC: 0.572384 (Simulation time: 1 hr 35 min 5 sec) 

ChampSim completed all CPUs

Region of Interest Statistics

CPU 0 cumulative IPC: 0.572384 instructions: 500000001 cycles: 873539147
cpu0_L1I TOTAL     ACCESS:   18504085  HIT:   18503975  MISS:        110
cpu0_L1I LOAD      ACCESS:   18504085  HIT:   18503975  MISS:        110
cpu0_L1I RFO       ACCESS:          0  HIT:          0  MISS:          0
cpu0_L1I PREFETCH  ACCESS:          0  HIT:          0  MISS:          0
cpu0_L1I WRITEBACK ACCESS:          0  HIT:          0  MISS:          0
cpu0_L1I TRANSLATION ACCESS:          0  HIT:          0  MISS:          0
cpu0_L1I PREFETCH  REQUESTED:          0  ISSUED:          0  USEFUL:          0  USELESS:          0
cpu0_L1I AVERAGE MISS LATENCY: 416.309 cycles
cpu0_DTLB TOTAL     ACCESS:  166223183  HIT:  165774256  MISS:     448927
cpu0_DTLB LOAD      ACCESS:  144400514  HIT:  143951588  MISS:     448926
cpu0_DTLB RFO       ACCESS:   21822669  HIT:   21822668  MISS:          1
cpu0_DTLB PREFETCH  ACCESS:          0  HIT:          0  MISS:          0
cpu0_DTLB WRITEBACK ACCESS:          0  HIT:          0  MISS:          0
cpu0_DTLB TRANSLATION ACCESS:          0  HIT:          0  MISS:          0
cpu0_DTLB PREFETCH  REQUESTED:          0  ISSUED:          0  USEFUL:          0  USELESS:          0
cpu0_DTLB AVERAGE MISS LATENCY: 49.4368 cycles
cpu0_ITLB TOTAL     ACCESS:    4190000  HIT:    4189996  MISS:          4
cpu0_ITLB LOAD      ACCESS:    4190000  HIT:    4189996  MISS:          4
cpu0_ITLB RFO       ACCESS:          0  HIT:          0  MISS:          0
cpu0_ITLB PREFETCH  ACCESS:          0  HIT:          0  MISS:          0
cpu0_ITLB WRITEBACK ACCESS:          0  HIT:          0  MISS:          0
cpu0_ITLB TRANSLATION ACCESS:          0  HIT:          0  MISS:          0
cpu0_ITLB PREFETCH  REQUESTED:          0  ISSUED:          0  USEFUL:          0  USELESS:          0
cpu0_ITLB AVERAGE MISS LATENCY: 219.75 cycles
cpu0_STLB TOTAL     ACCESS:     448931  HIT:     108980  MISS:     339951
cpu0_STLB LOAD      ACCESS:     448930  HIT:     108980  MISS:     339950
cpu0_STLB RFO       ACCESS:          1  HIT:          0  MISS:          1
cpu0_STLB PREFETCH  ACCESS:          0  HIT:          0  MISS:          0
cpu0_STLB WRITEBACK ACCESS:          0  HIT:          0  MISS:          0
cpu0_STLB TRANSLATION ACCESS:          0  HIT:          0  MISS:          0
cpu0_STLB PREFETCH  REQUESTED:          0  ISSUED:          0  USEFUL:          0  USELESS:          0
cpu0_STLB AVERAGE MISS LATENCY: 53.3847 cycles
cpu0_L1D TOTAL     ACCESS:  171379366  HIT:  163350309  MISS:    8029057
cpu0_L1D LOAD      ACCESS:  135403585  HIT:  127374648  MISS:    8028937
cpu0_L1D RFO       ACCESS:   35636256  HIT:   35636240  MISS:         16
cpu0_L1D PREFETCH  ACCESS:          0  HIT:          0  MISS:          0
cpu0_L1D WRITEBACK ACCESS:          0  HIT:          0  MISS:          0
cpu0_L1D TRANSLATION ACCESS:     339525  HIT:     339421  MISS:        104
cpu0_L1D PREFETCH  REQUESTED:          0  ISSUED:          0  USEFUL:          0  USELESS:          0
cpu0_L1D AVERAGE MISS LATENCY: 345.175 cycles
cpu0_L2C TOTAL     ACCESS:   11729006  HIT:    4709842  MISS:    7019164
cpu0_L2C LOAD      ACCESS:    8029047  HIT:    1009985  MISS:    7019062
cpu0_L2C RFO       ACCESS:         16  HIT:          0  MISS:         16
cpu0_L2C PREFETCH  ACCESS:          0  HIT:          0  MISS:          0
cpu0_L2C WRITEBACK ACCESS:    3699839  HIT:    3699829  MISS:         10
cpu0_L2C TRANSLATION ACCESS:        104  HIT:         28  MISS:         76
cpu0_L2C PREFETCH  REQUESTED:          0  ISSUED:          0  USEFUL:          0  USELESS:          0
cpu0_L2C AVERAGE MISS LATENCY: 382.231 cycles
LLC TOTAL     ACCESS:   13281458  HIT:    2033948  MISS:   11247510
LLC LOAD      ACCESS:    7019061  HIT:    2031820  MISS:    4987241
LLC RFO       ACCESS:         16  HIT:          0  MISS:         16
LLC PREFETCH  ACCESS:    2754733  HIT:       1716  MISS:    2753017
LLC WRITEBACK ACCESS:    3507572  HIT:        412  MISS:    3507160
LLC TRANSLATION ACCESS:         76  HIT:          0  MISS:         76
LLC PREFETCH  REQUESTED:    7019061  ISSUED:    7019061  USEFUL:    6214961  USELESS:     718235
LLC AVERAGE MISS LATENCY: 259.922 cycles

DRAM Statistics
 CHANNEL 0
 RQ ROW_BUFFER_HIT:      31881  ROW_BUFFER_MISS:    7708453
 DBUS AVG_CONGESTED_CYCLE:    3.99905
 WQ ROW_BUFFER_HIT:       9166  ROW_BUFFER_MISS:    3497577  FULL:          0


CPU 0 Branch Prediction Accuracy: 97.693% MPKI: 0.396364 Average ROB Occupancy at Mispredict: 343.306
Branch type MPKI
BRANCH_DIRECT_JUMP: 6e-06
BRANCH_INDIRECT: 0
BRANCH_CONDITIONAL: 0.396354
BRANCH_DIRECT_CALL: 2e-06
BRANCH_INDIRECT_CALL: 0
BRANCH_RETURN: 2e-06

