/home/caslab/workspace/sim/ChampSim/bin/champsim --warmup_instructions 200000000 --simulation_instructions 500000000/ /home/caslab/workspace/sim/traces/speccpu_by_champsim459.GemsFDTD-1491B.champsimtrace.xz
start simulation for 459.GemsFDTD-1491B.champsimtrace.xz

*** ChampSim Multicore Out-of-Order Simulator ***

Warmup Instructions: 200000000
Simulation Instructions: 500000000
Number of CPUs: 1
Off-chip DRAM Size: 4 GiB Channels: 1 Width: 64-bit Data Rate: 3200 MT/s

VirtualMemory physical capacity: 8588881920 num_ppages: 2096895
VirtualMemory page size: 4096 log2_page_size: 12

CPU 0 runs /home/caslab/workspace/sim/traces/speccpu_by_champsim/459.GemsFDTD-1491B.champsimtrace.xz
CPU 0 Bimodal branch predictor
Basic BTB sets: 1024 ways: 8 indirect buffer size: 4096 RAS size: 64
LLC next line prefetcher
WARNING: The extended signature CACHE::prefetch_line(ip, base_addr, pf_addr, fill_this_level, prefetch_metadata) is deprecated.
WARNING: Use CACHE::prefetch_line(pf_addr, fill_this_level, prefetch_metadata) instead.
Heartbeat CPU 0 instructions: 10000002 cycles: 3102240 heartbeat IPC: 3.22348 cumulative IPC: 3.22348 (Simulation time: 0 hr 0 min 28 sec) 
Heartbeat CPU 0 instructions: 20000002 cycles: 6204363 heartbeat IPC: 3.2236 cumulative IPC: 3.22354 (Simulation time: 0 hr 0 min 56 sec) 
Heartbeat CPU 0 instructions: 30000004 cycles: 9306476 heartbeat IPC: 3.22361 cumulative IPC: 3.22356 (Simulation time: 0 hr 1 min 23 sec) 
Heartbeat CPU 0 instructions: 40000002 cycles: 12408592 heartbeat IPC: 3.22361 cumulative IPC: 3.22357 (Simulation time: 0 hr 1 min 51 sec) 
Heartbeat CPU 0 instructions: 50000001 cycles: 15510715 heartbeat IPC: 3.2236 cumulative IPC: 3.22358 (Simulation time: 0 hr 2 min 18 sec) 
Heartbeat CPU 0 instructions: 60000001 cycles: 18612827 heartbeat IPC: 3.22361 cumulative IPC: 3.22358 (Simulation time: 0 hr 2 min 46 sec) 
Heartbeat CPU 0 instructions: 70000002 cycles: 21714944 heartbeat IPC: 3.22361 cumulative IPC: 3.22359 (Simulation time: 0 hr 3 min 13 sec) 
Heartbeat CPU 0 instructions: 80000001 cycles: 24817069 heartbeat IPC: 3.2236 cumulative IPC: 3.22359 (Simulation time: 0 hr 3 min 41 sec) 
Heartbeat CPU 0 instructions: 90000000 cycles: 27919182 heartbeat IPC: 3.22361 cumulative IPC: 3.22359 (Simulation time: 0 hr 4 min 8 sec) 
Heartbeat CPU 0 instructions: 100000001 cycles: 31021299 heartbeat IPC: 3.22361 cumulative IPC: 3.22359 (Simulation time: 0 hr 4 min 36 sec) 
Heartbeat CPU 0 instructions: 110000002 cycles: 34123417 heartbeat IPC: 3.2236 cumulative IPC: 3.22359 (Simulation time: 0 hr 5 min 3 sec) 
Heartbeat CPU 0 instructions: 120000000 cycles: 37225535 heartbeat IPC: 3.2236 cumulative IPC: 3.22359 (Simulation time: 0 hr 5 min 31 sec) 
Heartbeat CPU 0 instructions: 130000003 cycles: 40327662 heartbeat IPC: 3.2236 cumulative IPC: 3.22359 (Simulation time: 0 hr 5 min 59 sec) 
Heartbeat CPU 0 instructions: 140000003 cycles: 43429771 heartbeat IPC: 3.22361 cumulative IPC: 3.2236 (Simulation time: 0 hr 6 min 27 sec) 
Heartbeat CPU 0 instructions: 150000000 cycles: 46531887 heartbeat IPC: 3.22361 cumulative IPC: 3.2236 (Simulation time: 0 hr 6 min 54 sec) 
Heartbeat CPU 0 instructions: 160000002 cycles: 49634009 heartbeat IPC: 3.2236 cumulative IPC: 3.2236 (Simulation time: 0 hr 7 min 22 sec) 
Heartbeat CPU 0 instructions: 170000003 cycles: 52736126 heartbeat IPC: 3.22361 cumulative IPC: 3.2236 (Simulation time: 0 hr 7 min 49 sec) 
Heartbeat CPU 0 instructions: 180000003 cycles: 55838246 heartbeat IPC: 3.2236 cumulative IPC: 3.2236 (Simulation time: 0 hr 8 min 17 sec) 
Heartbeat CPU 0 instructions: 190000000 cycles: 58940362 heartbeat IPC: 3.22361 cumulative IPC: 3.2236 (Simulation time: 0 hr 8 min 44 sec) 
Heartbeat CPU 0 instructions: 200000003 cycles: 62042479 heartbeat IPC: 3.22361 cumulative IPC: 3.2236 (Simulation time: 0 hr 9 min 11 sec) 

Warmup complete CPU 0 instructions: 200000003 cycles: 62042479 (Simulation time: 0 hr 9 min 11 sec) 

Heartbeat CPU 0 instructions: 210000004 cycles: 89017000 heartbeat IPC: 0.37072 cumulative IPC: 0.37072 (Simulation time: 0 hr 11 min 18 sec) 
Heartbeat CPU 0 instructions: 220000002 cycles: 115900689 heartbeat IPC: 0.371973 cumulative IPC: 0.371345 (Simulation time: 0 hr 13 min 25 sec) 
Heartbeat CPU 0 instructions: 230000004 cycles: 142880860 heartbeat IPC: 0.370643 cumulative IPC: 0.371111 (Simulation time: 0 hr 15 min 32 sec) 
Heartbeat CPU 0 instructions: 240000003 cycles: 169916071 heartbeat IPC: 0.369888 cumulative IPC: 0.370804 (Simulation time: 0 hr 17 min 38 sec) 
Heartbeat CPU 0 instructions: 250000003 cycles: 196806979 heartbeat IPC: 0.371873 cumulative IPC: 0.371018 (Simulation time: 0 hr 19 min 45 sec) 
Heartbeat CPU 0 instructions: 260000002 cycles: 223996965 heartbeat IPC: 0.367782 cumulative IPC: 0.370474 (Simulation time: 0 hr 21 min 54 sec) 
Heartbeat CPU 0 instructions: 270000004 cycles: 251011731 heartbeat IPC: 0.370168 cumulative IPC: 0.370431 (Simulation time: 0 hr 24 min 1 sec) 
Heartbeat CPU 0 instructions: 280000000 cycles: 277962062 heartbeat IPC: 0.371053 cumulative IPC: 0.370508 (Simulation time: 0 hr 26 min 7 sec) 
Heartbeat CPU 0 instructions: 290000003 cycles: 305057848 heartbeat IPC: 0.369061 cumulative IPC: 0.370347 (Simulation time: 0 hr 28 min 14 sec) 
Heartbeat CPU 0 instructions: 300000004 cycles: 329979821 heartbeat IPC: 0.401252 cumulative IPC: 0.373222 (Simulation time: 0 hr 30 min 16 sec) 
Heartbeat CPU 0 instructions: 310000000 cycles: 343638424 heartbeat IPC: 0.732139 cumulative IPC: 0.390631 (Simulation time: 0 hr 31 min 46 sec) 
Heartbeat CPU 0 instructions: 320000001 cycles: 357219882 heartbeat IPC: 0.736298 cumulative IPC: 0.406535 (Simulation time: 0 hr 33 min 16 sec) 
Heartbeat CPU 0 instructions: 330000000 cycles: 370875882 heartbeat IPC: 0.732279 cumulative IPC: 0.420939 (Simulation time: 0 hr 34 min 47 sec) 
Heartbeat CPU 0 instructions: 340000000 cycles: 384490615 heartbeat IPC: 0.734498 cumulative IPC: 0.434178 (Simulation time: 0 hr 36 min 17 sec) 
Heartbeat CPU 0 instructions: 350000000 cycles: 398137065 heartbeat IPC: 0.732791 cumulative IPC: 0.446303 (Simulation time: 0 hr 37 min 48 sec) 
Heartbeat CPU 0 instructions: 360000001 cycles: 411739538 heartbeat IPC: 0.735161 cumulative IPC: 0.457539 (Simulation time: 0 hr 39 min 18 sec) 
Heartbeat CPU 0 instructions: 370000001 cycles: 425325973 heartbeat IPC: 0.736028 cumulative IPC: 0.467954 (Simulation time: 0 hr 40 min 48 sec) 
Heartbeat CPU 0 instructions: 380000000 cycles: 438928487 heartbeat IPC: 0.735158 cumulative IPC: 0.477598 (Simulation time: 0 hr 42 min 18 sec) 
Heartbeat CPU 0 instructions: 390000001 cycles: 452532598 heartbeat IPC: 0.735072 cumulative IPC: 0.486568 (Simulation time: 0 hr 43 min 49 sec) 
Heartbeat CPU 0 instructions: 400000002 cycles: 466199810 heartbeat IPC: 0.731678 cumulative IPC: 0.494857 (Simulation time: 0 hr 45 min 19 sec) 
Heartbeat CPU 0 instructions: 410000003 cycles: 479895925 heartbeat IPC: 0.730134 cumulative IPC: 0.502569 (Simulation time: 0 hr 46 min 50 sec) 
Heartbeat CPU 0 instructions: 420000000 cycles: 493233454 heartbeat IPC: 0.749764 cumulative IPC: 0.510215 (Simulation time: 0 hr 48 min 19 sec) 
Heartbeat CPU 0 instructions: 430000004 cycles: 508621635 heartbeat IPC: 0.64985 cumulative IPC: 0.515026 (Simulation time: 0 hr 49 min 57 sec) 
Heartbeat CPU 0 instructions: 440000004 cycles: 525691568 heartbeat IPC: 0.585825 cumulative IPC: 0.517633 (Simulation time: 0 hr 51 min 42 sec) 
Heartbeat CPU 0 instructions: 450000001 cycles: 537951662 heartbeat IPC: 0.815654 cumulative IPC: 0.52531 (Simulation time: 0 hr 53 min 8 sec) 
Heartbeat CPU 0 instructions: 460000001 cycles: 550303941 heartbeat IPC: 0.809567 cumulative IPC: 0.532502 (Simulation time: 0 hr 54 min 34 sec) 
Heartbeat CPU 0 instructions: 470000001 cycles: 562731351 heartbeat IPC: 0.804673 cumulative IPC: 0.539257 (Simulation time: 0 hr 56 min 1 sec) 
Heartbeat CPU 0 instructions: 480000000 cycles: 575231407 heartbeat IPC: 0.799996 cumulative IPC: 0.545608 (Simulation time: 0 hr 57 min 27 sec) 
Heartbeat CPU 0 instructions: 490000001 cycles: 587724127 heartbeat IPC: 0.800466 cumulative IPC: 0.551665 (Simulation time: 0 hr 58 min 54 sec) 
Heartbeat CPU 0 instructions: 500000004 cycles: 600235910 heartbeat IPC: 0.799247 cumulative IPC: 0.55742 (Simulation time: 1 hr 0 min 21 sec) 
Heartbeat CPU 0 instructions: 510000000 cycles: 612720221 heartbeat IPC: 0.801005 cumulative IPC: 0.562943 (Simulation time: 1 hr 1 min 48 sec) 
Heartbeat CPU 0 instructions: 520000000 cycles: 625188018 heartbeat IPC: 0.802066 cumulative IPC: 0.568237 (Simulation time: 1 hr 3 min 15 sec) 
Heartbeat CPU 0 instructions: 530000002 cycles: 637678864 heartbeat IPC: 0.800586 cumulative IPC: 0.573279 (Simulation time: 1 hr 4 min 42 sec) 
Heartbeat CPU 0 instructions: 540000000 cycles: 650230436 heartbeat IPC: 0.796713 cumulative IPC: 0.578047 (Simulation time: 1 hr 6 min 10 sec) 
Heartbeat CPU 0 instructions: 550000000 cycles: 662851836 heartbeat IPC: 0.792305 cumulative IPC: 0.582547 (Simulation time: 1 hr 7 min 38 sec) 
Heartbeat CPU 0 instructions: 560000004 cycles: 675582680 heartbeat IPC: 0.785494 cumulative IPC: 0.586759 (Simulation time: 1 hr 9 min 6 sec) 
Heartbeat CPU 0 instructions: 570000004 cycles: 688428122 heartbeat IPC: 0.778486 cumulative IPC: 0.59069 (Simulation time: 1 hr 10 min 34 sec) 
Heartbeat CPU 0 instructions: 580000004 cycles: 701426554 heartbeat IPC: 0.769324 cumulative IPC: 0.594322 (Simulation time: 1 hr 12 min 3 sec) 
Heartbeat CPU 0 instructions: 590000003 cycles: 711543183 heartbeat IPC: 0.988471 cumulative IPC: 0.600461 (Simulation time: 1 hr 13 min 21 sec) 
Heartbeat CPU 0 instructions: 600000002 cycles: 720932971 heartbeat IPC: 1.06499 cumulative IPC: 0.607081 (Simulation time: 1 hr 14 min 37 sec) 
Heartbeat CPU 0 instructions: 610000000 cycles: 730148564 heartbeat IPC: 1.08512 cumulative IPC: 0.613675 (Simulation time: 1 hr 15 min 53 sec) 
Heartbeat CPU 0 instructions: 620000000 cycles: 739580976 heartbeat IPC: 1.06017 cumulative IPC: 0.619891 (Simulation time: 1 hr 17 min 9 sec) 
Heartbeat CPU 0 instructions: 630000001 cycles: 748964089 heartbeat IPC: 1.06574 cumulative IPC: 0.625981 (Simulation time: 1 hr 18 min 25 sec) 
Heartbeat CPU 0 instructions: 640000002 cycles: 758183247 heartbeat IPC: 1.0847 cumulative IPC: 0.632056 (Simulation time: 1 hr 19 min 40 sec) 
Heartbeat CPU 0 instructions: 650000003 cycles: 767620980 heartbeat IPC: 1.05958 cumulative IPC: 0.637775 (Simulation time: 1 hr 20 min 57 sec) 
Heartbeat CPU 0 instructions: 660000000 cycles: 776976639 heartbeat IPC: 1.06887 cumulative IPC: 0.643416 (Simulation time: 1 hr 22 min 13 sec) 
Heartbeat CPU 0 instructions: 670000004 cycles: 786158800 heartbeat IPC: 1.08907 cumulative IPC: 0.649067 (Simulation time: 1 hr 23 min 28 sec) 
Heartbeat CPU 0 instructions: 680000000 cycles: 795578655 heartbeat IPC: 1.06159 cumulative IPC: 0.654364 (Simulation time: 1 hr 24 min 45 sec) 
Heartbeat CPU 0 instructions: 690000001 cycles: 804902909 heartbeat IPC: 1.07247 cumulative IPC: 0.659612 (Simulation time: 1 hr 26 min 1 sec) 
Heartbeat CPU 0 instructions: 700000001 cycles: 812863677 heartbeat IPC: 1.25616 cumulative IPC: 0.665937 (Simulation time: 1 hr 27 min 8 sec) 
Finished CPU 0 instructions: 500000003 cycles: 750821199 cumulative IPC: 0.665938 (Simulation time: 1 hr 27 min 8 sec) 

ChampSim completed all CPUs

Region of Interest Statistics

CPU 0 cumulative IPC: 0.665938 instructions: 500000003 cycles: 750821199
cpu0_L1I TOTAL     ACCESS:   36187134  HIT:   36186865  MISS:        269
cpu0_L1I LOAD      ACCESS:   36187134  HIT:   36186865  MISS:        269
cpu0_L1I RFO       ACCESS:          0  HIT:          0  MISS:          0
cpu0_L1I PREFETCH  ACCESS:          0  HIT:          0  MISS:          0
cpu0_L1I WRITEBACK ACCESS:          0  HIT:          0  MISS:          0
cpu0_L1I TRANSLATION ACCESS:          0  HIT:          0  MISS:          0
cpu0_L1I PREFETCH  REQUESTED:          0  ISSUED:          0  USEFUL:          0  USELESS:          0
cpu0_L1I AVERAGE MISS LATENCY: 370.037 cycles
cpu0_DTLB TOTAL     ACCESS:  212865176  HIT:  212171824  MISS:     693352
cpu0_DTLB LOAD      ACCESS:  191416627  HIT:  190723279  MISS:     693348
cpu0_DTLB RFO       ACCESS:   21448549  HIT:   21448545  MISS:          4
cpu0_DTLB PREFETCH  ACCESS:          0  HIT:          0  MISS:          0
cpu0_DTLB WRITEBACK ACCESS:          0  HIT:          0  MISS:          0
cpu0_DTLB TRANSLATION ACCESS:          0  HIT:          0  MISS:          0
cpu0_DTLB PREFETCH  REQUESTED:          0  ISSUED:          0  USEFUL:          0  USELESS:          0
cpu0_DTLB AVERAGE MISS LATENCY: 43.1326 cycles
cpu0_ITLB TOTAL     ACCESS:    7232524  HIT:    7232516  MISS:          8
cpu0_ITLB LOAD      ACCESS:    7232524  HIT:    7232516  MISS:          8
cpu0_ITLB RFO       ACCESS:          0  HIT:          0  MISS:          0
cpu0_ITLB PREFETCH  ACCESS:          0  HIT:          0  MISS:          0
cpu0_ITLB WRITEBACK ACCESS:          0  HIT:          0  MISS:          0
cpu0_ITLB TRANSLATION ACCESS:          0  HIT:          0  MISS:          0
cpu0_ITLB PREFETCH  REQUESTED:          0  ISSUED:          0  USEFUL:          0  USELESS:          0
cpu0_ITLB AVERAGE MISS LATENCY: 298.25 cycles
cpu0_STLB TOTAL     ACCESS:     693360  HIT:     158579  MISS:     534781
cpu0_STLB LOAD      ACCESS:     693356  HIT:     158575  MISS:     534781
cpu0_STLB RFO       ACCESS:          4  HIT:          4  MISS:          0
cpu0_STLB PREFETCH  ACCESS:          0  HIT:          0  MISS:          0
cpu0_STLB WRITEBACK ACCESS:          0  HIT:          0  MISS:          0
cpu0_STLB TRANSLATION ACCESS:          0  HIT:          0  MISS:          0
cpu0_STLB PREFETCH  REQUESTED:          0  ISSUED:          0  USEFUL:          0  USELESS:          0
cpu0_STLB AVERAGE MISS LATENCY: 44.2223 cycles
cpu0_L1D TOTAL     ACCESS:  244246663  HIT:  238883854  MISS:    5362809
cpu0_L1D LOAD      ACCESS:  208539916  HIT:  203177390  MISS:    5362526
cpu0_L1D RFO       ACCESS:   35172653  HIT:   35172624  MISS:         29
cpu0_L1D PREFETCH  ACCESS:          0  HIT:          0  MISS:          0
cpu0_L1D WRITEBACK ACCESS:          0  HIT:          0  MISS:          0
cpu0_L1D TRANSLATION ACCESS:     534094  HIT:     533840  MISS:        254
cpu0_L1D PREFETCH  REQUESTED:          0  ISSUED:          0  USEFUL:          0  USELESS:          0
cpu0_L1D AVERAGE MISS LATENCY: 329.961 cycles
cpu0_L2C TOTAL     ACCESS:    8274330  HIT:    3760509  MISS:    4513821
cpu0_L2C LOAD      ACCESS:    5362796  HIT:     849094  MISS:    4513702
cpu0_L2C RFO       ACCESS:         29  HIT:          1  MISS:         28
cpu0_L2C PREFETCH  ACCESS:          0  HIT:          0  MISS:          0
cpu0_L2C WRITEBACK ACCESS:    2911251  HIT:    2911241  MISS:         10
cpu0_L2C TRANSLATION ACCESS:        254  HIT:        173  MISS:         81
cpu0_L2C PREFETCH  REQUESTED:          0  ISSUED:          0  USEFUL:          0  USELESS:          0
cpu0_L2C AVERAGE MISS LATENCY: 378.91 cycles
LLC TOTAL     ACCESS:    9987434  HIT:    2098864  MISS:    7888570
LLC LOAD      ACCESS:    4513700  HIT:    2075657  MISS:    2438043
LLC RFO       ACCESS:         28  HIT:          0  MISS:         28
LLC PREFETCH  ACCESS:    2998439  HIT:      21381  MISS:    2977058
LLC WRITEBACK ACCESS:    2475186  HIT:       1826  MISS:    2473360
LLC TRANSLATION ACCESS:         81  HIT:          0  MISS:         81
LLC PREFETCH  REQUESTED:    4513700  ISSUED:    4513700  USEFUL:    3523153  USELESS:     911297
LLC AVERAGE MISS LATENCY: 417.476 cycles

DRAM Statistics
 CHANNEL 0
 RQ ROW_BUFFER_HIT:      16698  ROW_BUFFER_MISS:    5398451
 DBUS AVG_CONGESTED_CYCLE:    3.99772
 WQ ROW_BUFFER_HIT:       3414  ROW_BUFFER_MISS:    2469772  FULL:          0


CPU 0 Branch Prediction Accuracy: 94.6321% MPKI: 0.499212 Average ROB Occupancy at Mispredict: 348.77
Branch type MPKI
BRANCH_DIRECT_JUMP: 2.2e-05
BRANCH_INDIRECT: 0
BRANCH_CONDITIONAL: 0.499186
BRANCH_DIRECT_CALL: 2e-06
BRANCH_INDIRECT_CALL: 0
BRANCH_RETURN: 2e-06

