/home/caslab/workspace/sim/ChampSim/bin/champsim --warmup_instructions 200000000 --simulation_instructions 500000000/ /home/caslab/workspace/sim/traces/speccpu_by_champsim459.GemsFDTD-765B.champsimtrace.xz
start simulation for 459.GemsFDTD-765B.champsimtrace.xz

*** ChampSim Multicore Out-of-Order Simulator ***

Warmup Instructions: 200000000
Simulation Instructions: 500000000
Number of CPUs: 1
Off-chip DRAM Size: 4 GiB Channels: 1 Width: 64-bit Data Rate: 3200 MT/s

VirtualMemory physical capacity: 8588881920 num_ppages: 2096895
VirtualMemory page size: 4096 log2_page_size: 12

CPU 0 runs /home/caslab/workspace/sim/traces/speccpu_by_champsim/459.GemsFDTD-765B.champsimtrace.xz
CPU 0 Bimodal branch predictor
Basic BTB sets: 1024 ways: 8 indirect buffer size: 4096 RAS size: 64
LLC next line prefetcher
WARNING: The extended signature CACHE::prefetch_line(ip, base_addr, pf_addr, fill_this_level, prefetch_metadata) is deprecated.
WARNING: Use CACHE::prefetch_line(pf_addr, fill_this_level, prefetch_metadata) instead.
Heartbeat CPU 0 instructions: 10000000 cycles: 5452118 heartbeat IPC: 1.83415 cumulative IPC: 1.83415 (Simulation time: 0 hr 1 min 8 sec) 
Heartbeat CPU 0 instructions: 20000004 cycles: 10904113 heartbeat IPC: 1.83419 cumulative IPC: 1.83417 (Simulation time: 0 hr 2 min 16 sec) 
Heartbeat CPU 0 instructions: 30000000 cycles: 16356124 heartbeat IPC: 1.83418 cumulative IPC: 1.83418 (Simulation time: 0 hr 3 min 24 sec) 
Heartbeat CPU 0 instructions: 40000000 cycles: 21808127 heartbeat IPC: 1.83419 cumulative IPC: 1.83418 (Simulation time: 0 hr 4 min 32 sec) 
Heartbeat CPU 0 instructions: 50000003 cycles: 27642161 heartbeat IPC: 1.71408 cumulative IPC: 1.80883 (Simulation time: 0 hr 5 min 48 sec) 
Heartbeat CPU 0 instructions: 60000000 cycles: 33729697 heartbeat IPC: 1.6427 cumulative IPC: 1.77885 (Simulation time: 0 hr 7 min 6 sec) 
Heartbeat CPU 0 instructions: 70000000 cycles: 39194742 heartbeat IPC: 1.82981 cumulative IPC: 1.78595 (Simulation time: 0 hr 8 min 17 sec) 
Heartbeat CPU 0 instructions: 80000000 cycles: 44659772 heartbeat IPC: 1.82982 cumulative IPC: 1.79132 (Simulation time: 0 hr 9 min 28 sec) 
Heartbeat CPU 0 instructions: 90000001 cycles: 50124789 heartbeat IPC: 1.82982 cumulative IPC: 1.79552 (Simulation time: 0 hr 10 min 39 sec) 
Heartbeat CPU 0 instructions: 100000003 cycles: 55589832 heartbeat IPC: 1.82981 cumulative IPC: 1.79889 (Simulation time: 0 hr 11 min 49 sec) 
Heartbeat CPU 0 instructions: 110000002 cycles: 61054841 heartbeat IPC: 1.82982 cumulative IPC: 1.80166 (Simulation time: 0 hr 13 min 0 sec) 
Heartbeat CPU 0 instructions: 120000003 cycles: 66519885 heartbeat IPC: 1.82981 cumulative IPC: 1.80397 (Simulation time: 0 hr 14 min 11 sec) 
Heartbeat CPU 0 instructions: 130000004 cycles: 71984930 heartbeat IPC: 1.82981 cumulative IPC: 1.80593 (Simulation time: 0 hr 15 min 21 sec) 
Heartbeat CPU 0 instructions: 140000002 cycles: 77449930 heartbeat IPC: 1.82983 cumulative IPC: 1.80762 (Simulation time: 0 hr 16 min 32 sec) 
Heartbeat CPU 0 instructions: 150000003 cycles: 82914975 heartbeat IPC: 1.82981 cumulative IPC: 1.80908 (Simulation time: 0 hr 17 min 44 sec) 
Heartbeat CPU 0 instructions: 160000004 cycles: 88379987 heartbeat IPC: 1.82982 cumulative IPC: 1.81036 (Simulation time: 0 hr 18 min 55 sec) 
Heartbeat CPU 0 instructions: 170000004 cycles: 93845028 heartbeat IPC: 1.82981 cumulative IPC: 1.8115 (Simulation time: 0 hr 20 min 5 sec) 
Heartbeat CPU 0 instructions: 180000003 cycles: 99310071 heartbeat IPC: 1.82981 cumulative IPC: 1.81251 (Simulation time: 0 hr 21 min 15 sec) 
Heartbeat CPU 0 instructions: 190000003 cycles: 104775076 heartbeat IPC: 1.82982 cumulative IPC: 1.81341 (Simulation time: 0 hr 22 min 26 sec) 
Heartbeat CPU 0 instructions: 200000000 cycles: 110249017 heartbeat IPC: 1.82684 cumulative IPC: 1.81408 (Simulation time: 0 hr 23 min 37 sec) 

Warmup complete CPU 0 instructions: 200000005 cycles: 110249018 (Simulation time: 0 hr 23 min 37 sec) 

Heartbeat CPU 0 instructions: 210000001 cycles: 119632458 heartbeat IPC: 1.06571 cumulative IPC: 1.06571 (Simulation time: 0 hr 24 min 53 sec) 
Heartbeat CPU 0 instructions: 220000002 cycles: 128882706 heartbeat IPC: 1.08105 cumulative IPC: 1.07332 (Simulation time: 0 hr 26 min 8 sec) 
Heartbeat CPU 0 instructions: 230000003 cycles: 138124072 heartbeat IPC: 1.08209 cumulative IPC: 1.07623 (Simulation time: 0 hr 27 min 23 sec) 
Heartbeat CPU 0 instructions: 240000000 cycles: 147589896 heartbeat IPC: 1.05643 cumulative IPC: 1.07121 (Simulation time: 0 hr 28 min 40 sec) 
Heartbeat CPU 0 instructions: 250000004 cycles: 156848631 heartbeat IPC: 1.08006 cumulative IPC: 1.07297 (Simulation time: 0 hr 29 min 55 sec) 
Heartbeat CPU 0 instructions: 260000000 cycles: 166046293 heartbeat IPC: 1.08723 cumulative IPC: 1.07532 (Simulation time: 0 hr 31 min 10 sec) 
Heartbeat CPU 0 instructions: 270000001 cycles: 175499418 heartbeat IPC: 1.05785 cumulative IPC: 1.07279 (Simulation time: 0 hr 32 min 27 sec) 
Heartbeat CPU 0 instructions: 280000002 cycles: 184778104 heartbeat IPC: 1.07774 cumulative IPC: 1.07341 (Simulation time: 0 hr 33 min 42 sec) 
Heartbeat CPU 0 instructions: 290000000 cycles: 193993918 heartbeat IPC: 1.08509 cumulative IPC: 1.07469 (Simulation time: 0 hr 34 min 57 sec) 
Heartbeat CPU 0 instructions: 300000000 cycles: 203427036 heartbeat IPC: 1.06009 cumulative IPC: 1.07321 (Simulation time: 0 hr 36 min 13 sec) 
Heartbeat CPU 0 instructions: 310000000 cycles: 212722669 heartbeat IPC: 1.07577 cumulative IPC: 1.07345 (Simulation time: 0 hr 37 min 28 sec) 
Heartbeat CPU 0 instructions: 320000001 cycles: 220030283 heartbeat IPC: 1.36844 cumulative IPC: 1.09308 (Simulation time: 0 hr 38 min 31 sec) 
Heartbeat CPU 0 instructions: 330000004 cycles: 229444911 heartbeat IPC: 1.06218 cumulative IPC: 1.09064 (Simulation time: 0 hr 39 min 47 sec) 
Heartbeat CPU 0 instructions: 340000000 cycles: 238986329 heartbeat IPC: 1.04806 cumulative IPC: 1.08749 (Simulation time: 0 hr 41 min 4 sec) 
Heartbeat CPU 0 instructions: 350000000 cycles: 248477225 heartbeat IPC: 1.05364 cumulative IPC: 1.08516 (Simulation time: 0 hr 42 min 21 sec) 
Heartbeat CPU 0 instructions: 360000003 cycles: 257919516 heartbeat IPC: 1.05907 cumulative IPC: 1.08349 (Simulation time: 0 hr 43 min 37 sec) 
Heartbeat CPU 0 instructions: 370000000 cycles: 267481693 heartbeat IPC: 1.04579 cumulative IPC: 1.0812 (Simulation time: 0 hr 44 min 53 sec) 
Heartbeat CPU 0 instructions: 380000003 cycles: 277095643 heartbeat IPC: 1.04016 cumulative IPC: 1.07884 (Simulation time: 0 hr 46 min 10 sec) 
Heartbeat CPU 0 instructions: 390000001 cycles: 286596322 heartbeat IPC: 1.05256 cumulative IPC: 1.07742 (Simulation time: 0 hr 47 min 26 sec) 
Heartbeat CPU 0 instructions: 400000003 cycles: 296188697 heartbeat IPC: 1.04249 cumulative IPC: 1.07562 (Simulation time: 0 hr 48 min 43 sec) 
Heartbeat CPU 0 instructions: 410000003 cycles: 305899282 heartbeat IPC: 1.0298 cumulative IPC: 1.07334 (Simulation time: 0 hr 50 min 1 sec) 
Heartbeat CPU 0 instructions: 420000004 cycles: 315469948 heartbeat IPC: 1.04486 cumulative IPC: 1.07202 (Simulation time: 0 hr 51 min 17 sec) 
Heartbeat CPU 0 instructions: 430000001 cycles: 324956066 heartbeat IPC: 1.05417 cumulative IPC: 1.07123 (Simulation time: 0 hr 52 min 34 sec) 
Heartbeat CPU 0 instructions: 440000004 cycles: 334669854 heartbeat IPC: 1.02946 cumulative IPC: 1.06942 (Simulation time: 0 hr 53 min 51 sec) 
Heartbeat CPU 0 instructions: 450000003 cycles: 345235086 heartbeat IPC: 0.946501 cumulative IPC: 1.06389 (Simulation time: 0 hr 55 min 12 sec) 
Heartbeat CPU 0 instructions: 460000001 cycles: 354739167 heartbeat IPC: 1.05218 cumulative IPC: 1.06344 (Simulation time: 0 hr 56 min 29 sec) 
Heartbeat CPU 0 instructions: 470000002 cycles: 364330851 heartbeat IPC: 1.04257 cumulative IPC: 1.06265 (Simulation time: 0 hr 57 min 47 sec) 
Heartbeat CPU 0 instructions: 480000000 cycles: 374028375 heartbeat IPC: 1.03119 cumulative IPC: 1.06149 (Simulation time: 0 hr 59 min 4 sec) 
Heartbeat CPU 0 instructions: 490000000 cycles: 383714551 heartbeat IPC: 1.0324 cumulative IPC: 1.06046 (Simulation time: 1 hr 0 min 21 sec) 
Heartbeat CPU 0 instructions: 500000001 cycles: 393475885 heartbeat IPC: 1.02445 cumulative IPC: 1.05922 (Simulation time: 1 hr 1 min 38 sec) 
Heartbeat CPU 0 instructions: 510000001 cycles: 403163369 heartbeat IPC: 1.03226 cumulative IPC: 1.05833 (Simulation time: 1 hr 2 min 55 sec) 
Heartbeat CPU 0 instructions: 520000000 cycles: 412687783 heartbeat IPC: 1.04993 cumulative IPC: 1.05807 (Simulation time: 1 hr 4 min 12 sec) 
Heartbeat CPU 0 instructions: 530000000 cycles: 422233350 heartbeat IPC: 1.04761 cumulative IPC: 1.05775 (Simulation time: 1 hr 5 min 28 sec) 
Heartbeat CPU 0 instructions: 540000002 cycles: 431716468 heartbeat IPC: 1.05451 cumulative IPC: 1.05765 (Simulation time: 1 hr 6 min 44 sec) 
Heartbeat CPU 0 instructions: 550000003 cycles: 439536852 heartbeat IPC: 1.27871 cumulative IPC: 1.0629 (Simulation time: 1 hr 7 min 48 sec) 
Heartbeat CPU 0 instructions: 560000001 cycles: 449794785 heartbeat IPC: 0.974855 cumulative IPC: 1.06024 (Simulation time: 1 hr 9 min 8 sec) 
Heartbeat CPU 0 instructions: 570000004 cycles: 459211470 heartbeat IPC: 1.06195 cumulative IPC: 1.06029 (Simulation time: 1 hr 10 min 24 sec) 
Heartbeat CPU 0 instructions: 580000000 cycles: 468790265 heartbeat IPC: 1.04397 cumulative IPC: 1.05985 (Simulation time: 1 hr 11 min 41 sec) 
Heartbeat CPU 0 instructions: 590000000 cycles: 478491850 heartbeat IPC: 1.03076 cumulative IPC: 1.05908 (Simulation time: 1 hr 12 min 58 sec) 
Heartbeat CPU 0 instructions: 600000002 cycles: 488245494 heartbeat IPC: 1.02526 cumulative IPC: 1.05821 (Simulation time: 1 hr 14 min 15 sec) 
Heartbeat CPU 0 instructions: 610000002 cycles: 498018581 heartbeat IPC: 1.02322 cumulative IPC: 1.05733 (Simulation time: 1 hr 15 min 32 sec) 
Heartbeat CPU 0 instructions: 620000001 cycles: 507785996 heartbeat IPC: 1.02381 cumulative IPC: 1.05651 (Simulation time: 1 hr 16 min 50 sec) 
Heartbeat CPU 0 instructions: 630000002 cycles: 517352798 heartbeat IPC: 1.04528 cumulative IPC: 1.05624 (Simulation time: 1 hr 18 min 7 sec) 
Heartbeat CPU 0 instructions: 640000004 cycles: 526882639 heartbeat IPC: 1.04934 cumulative IPC: 1.05608 (Simulation time: 1 hr 19 min 24 sec) 
Heartbeat CPU 0 instructions: 650000002 cycles: 536394150 heartbeat IPC: 1.05136 cumulative IPC: 1.05598 (Simulation time: 1 hr 20 min 41 sec) 
Heartbeat CPU 0 instructions: 660000000 cycles: 545586871 heartbeat IPC: 1.08782 cumulative IPC: 1.05665 (Simulation time: 1 hr 21 min 48 sec) 
Heartbeat CPU 0 instructions: 670000001 cycles: 561677356 heartbeat IPC: 0.621485 cumulative IPC: 1.04114 (Simulation time: 1 hr 23 min 6 sec) 
Heartbeat CPU 0 instructions: 680000001 cycles: 573328681 heartbeat IPC: 0.858271 cumulative IPC: 1.03654 (Simulation time: 1 hr 24 min 6 sec) 
Heartbeat CPU 0 instructions: 690000003 cycles: 579471341 heartbeat IPC: 1.62796 cumulative IPC: 1.04428 (Simulation time: 1 hr 24 min 43 sec) 
Heartbeat CPU 0 instructions: 700000000 cycles: 585695409 heartbeat IPC: 1.60667 cumulative IPC: 1.05164 (Simulation time: 1 hr 25 min 20 sec) 
Finished CPU 0 instructions: 500000000 cycles: 475446404 cumulative IPC: 1.05164 (Simulation time: 1 hr 25 min 20 sec) 

ChampSim completed all CPUs

Region of Interest Statistics

CPU 0 cumulative IPC: 1.05164 instructions: 500000000 cycles: 475446404
cpu0_L1I TOTAL     ACCESS:   50835833  HIT:   50835308  MISS:        525
cpu0_L1I LOAD      ACCESS:   50835833  HIT:   50835308  MISS:        525
cpu0_L1I RFO       ACCESS:          0  HIT:          0  MISS:          0
cpu0_L1I PREFETCH  ACCESS:          0  HIT:          0  MISS:          0
cpu0_L1I WRITEBACK ACCESS:          0  HIT:          0  MISS:          0
cpu0_L1I TRANSLATION ACCESS:          0  HIT:          0  MISS:          0
cpu0_L1I PREFETCH  REQUESTED:          0  ISSUED:          0  USEFUL:          0  USELESS:          0
cpu0_L1I AVERAGE MISS LATENCY: 266.303 cycles
cpu0_DTLB TOTAL     ACCESS:  221419569  HIT:  221288181  MISS:     131388
cpu0_DTLB LOAD      ACCESS:  201608749  HIT:  201480400  MISS:     128349
cpu0_DTLB RFO       ACCESS:   19810820  HIT:   19807781  MISS:       3039
cpu0_DTLB PREFETCH  ACCESS:          0  HIT:          0  MISS:          0
cpu0_DTLB WRITEBACK ACCESS:          0  HIT:          0  MISS:          0
cpu0_DTLB TRANSLATION ACCESS:          0  HIT:          0  MISS:          0
cpu0_DTLB PREFETCH  REQUESTED:          0  ISSUED:          0  USEFUL:          0  USELESS:          0
cpu0_DTLB AVERAGE MISS LATENCY: 240.261 cycles
cpu0_ITLB TOTAL     ACCESS:    9298963  HIT:    9298944  MISS:         19
cpu0_ITLB LOAD      ACCESS:    9298963  HIT:    9298944  MISS:         19
cpu0_ITLB RFO       ACCESS:          0  HIT:          0  MISS:          0
cpu0_ITLB PREFETCH  ACCESS:          0  HIT:          0  MISS:          0
cpu0_ITLB WRITEBACK ACCESS:          0  HIT:          0  MISS:          0
cpu0_ITLB TRANSLATION ACCESS:          0  HIT:          0  MISS:          0
cpu0_ITLB PREFETCH  REQUESTED:          0  ISSUED:          0  USEFUL:          0  USELESS:          0
cpu0_ITLB AVERAGE MISS LATENCY: 268.474 cycles
cpu0_STLB TOTAL     ACCESS:     131407  HIT:      15731  MISS:     115676
cpu0_STLB LOAD      ACCESS:     128368  HIT:      13158  MISS:     115210
cpu0_STLB RFO       ACCESS:       3039  HIT:       2573  MISS:        466
cpu0_STLB PREFETCH  ACCESS:          0  HIT:          0  MISS:          0
cpu0_STLB WRITEBACK ACCESS:          0  HIT:          0  MISS:          0
cpu0_STLB TRANSLATION ACCESS:          0  HIT:          0  MISS:          0
cpu0_STLB PREFETCH  REQUESTED:          0  ISSUED:          0  USEFUL:          0  USELESS:          0
cpu0_STLB AVERAGE MISS LATENCY: 262.698 cycles
cpu0_L1D TOTAL     ACCESS:  255736398  HIT:  252631453  MISS:    3104945
cpu0_L1D LOAD      ACCESS:  225844312  HIT:  222760980  MISS:    3083332
cpu0_L1D RFO       ACCESS:   29816232  HIT:   29794789  MISS:      21443
cpu0_L1D PREFETCH  ACCESS:          0  HIT:          0  MISS:          0
cpu0_L1D WRITEBACK ACCESS:          0  HIT:          0  MISS:          0
cpu0_L1D TRANSLATION ACCESS:      75854  HIT:      75684  MISS:        170
cpu0_L1D PREFETCH  REQUESTED:          0  ISSUED:          0  USEFUL:          0  USELESS:          0
cpu0_L1D AVERAGE MISS LATENCY: 189.818 cycles
cpu0_L2C TOTAL     ACCESS:    5002220  HIT:    2170124  MISS:    2832096
cpu0_L2C LOAD      ACCESS:    3083857  HIT:     261007  MISS:    2822850
cpu0_L2C RFO       ACCESS:      21443  HIT:      12240  MISS:       9203
cpu0_L2C PREFETCH  ACCESS:          0  HIT:          0  MISS:          0
cpu0_L2C WRITEBACK ACCESS:    1896750  HIT:    1896738  MISS:         12
cpu0_L2C TRANSLATION ACCESS:        170  HIT:        139  MISS:         31
cpu0_L2C PREFETCH  REQUESTED:          0  ISSUED:          0  USEFUL:          0  USELESS:          0
cpu0_L2C AVERAGE MISS LATENCY: 196.079 cycles
LLC TOTAL     ACCESS:    7131989  HIT:    2226294  MISS:    4905695
LLC LOAD      ACCESS:    2822849  HIT:    2223130  MISS:     599719
LLC RFO       ACCESS:       9203  HIT:          1  MISS:       9202
LLC PREFETCH  ACCESS:    2482437  HIT:       3034  MISS:    2479403
LLC WRITEBACK ACCESS:    1817469  HIT:        129  MISS:    1817340
LLC TRANSLATION ACCESS:         31  HIT:          0  MISS:         31
LLC PREFETCH  REQUESTED:    2822849  ISSUED:    2822849  USEFUL:    2526604  USELESS:     261935
LLC AVERAGE MISS LATENCY: 554.819 cycles

DRAM Statistics
 CHANNEL 0
 RQ ROW_BUFFER_HIT:      29765  ROW_BUFFER_MISS:    3058590
 DBUS AVG_CONGESTED_CYCLE:    3.99662
 WQ ROW_BUFFER_HIT:       4043  ROW_BUFFER_MISS:    1810704  FULL:          0


CPU 0 Branch Prediction Accuracy: 99.4943% MPKI: 0.078462 Average ROB Occupancy at Mispredict: 306.549
Branch type MPKI
BRANCH_DIRECT_JUMP: 3.2e-05
BRANCH_INDIRECT: 2e-06
BRANCH_CONDITIONAL: 0.078128
BRANCH_DIRECT_CALL: 0.000152
BRANCH_INDIRECT_CALL: 0
BRANCH_RETURN: 0.000148

