/home/caslab/workspace/sim/ChampSim/bin/champsim --warmup_instructions 200000000 --simulation_instructions 500000000/ /home/caslab/workspace/sim/traces/speccpu_by_champsim465.tonto-1914B.champsimtrace.xz
start simulation for 465.tonto-1914B.champsimtrace.xz

*** ChampSim Multicore Out-of-Order Simulator ***

Warmup Instructions: 200000000
Simulation Instructions: 500000000
Number of CPUs: 1
Off-chip DRAM Size: 4 GiB Channels: 1 Width: 64-bit Data Rate: 3200 MT/s

VirtualMemory physical capacity: 8588881920 num_ppages: 2096895
VirtualMemory page size: 4096 log2_page_size: 12

CPU 0 runs /home/caslab/workspace/sim/traces/speccpu_by_champsim/465.tonto-1914B.champsimtrace.xz
CPU 0 Bimodal branch predictor
Basic BTB sets: 1024 ways: 8 indirect buffer size: 4096 RAS size: 64
LLC next line prefetcher
WARNING: The extended signature CACHE::prefetch_line(ip, base_addr, pf_addr, fill_this_level, prefetch_metadata) is deprecated.
WARNING: Use CACHE::prefetch_line(pf_addr, fill_this_level, prefetch_metadata) instead.
Heartbeat CPU 0 instructions: 10000002 cycles: 2960134 heartbeat IPC: 3.37823 cumulative IPC: 3.37823 (Simulation time: 0 hr 0 min 26 sec) 
Heartbeat CPU 0 instructions: 20000000 cycles: 6120033 heartbeat IPC: 3.16466 cumulative IPC: 3.26796 (Simulation time: 0 hr 0 min 54 sec) 
Heartbeat CPU 0 instructions: 30000002 cycles: 8810869 heartbeat IPC: 3.71632 cumulative IPC: 3.40489 (Simulation time: 0 hr 1 min 17 sec) 
Heartbeat CPU 0 instructions: 40000000 cycles: 11432450 heartbeat IPC: 3.81449 cumulative IPC: 3.49881 (Simulation time: 0 hr 1 min 39 sec) 
Heartbeat CPU 0 instructions: 50000000 cycles: 14222044 heartbeat IPC: 3.58475 cumulative IPC: 3.51567 (Simulation time: 0 hr 2 min 3 sec) 
Heartbeat CPU 0 instructions: 60000000 cycles: 17285625 heartbeat IPC: 3.26415 cumulative IPC: 3.47109 (Simulation time: 0 hr 2 min 31 sec) 
Heartbeat CPU 0 instructions: 70000001 cycles: 20445119 heartbeat IPC: 3.16506 cumulative IPC: 3.4238 (Simulation time: 0 hr 2 min 58 sec) 
Heartbeat CPU 0 instructions: 80000003 cycles: 23398273 heartbeat IPC: 3.38621 cumulative IPC: 3.41906 (Simulation time: 0 hr 3 min 24 sec) 
Heartbeat CPU 0 instructions: 90000000 cycles: 26019825 heartbeat IPC: 3.81453 cumulative IPC: 3.4589 (Simulation time: 0 hr 3 min 46 sec) 
Heartbeat CPU 0 instructions: 100000003 cycles: 28641018 heartbeat IPC: 3.81506 cumulative IPC: 3.4915 (Simulation time: 0 hr 4 min 8 sec) 
Heartbeat CPU 0 instructions: 110000003 cycles: 31313233 heartbeat IPC: 3.74221 cumulative IPC: 3.51289 (Simulation time: 0 hr 4 min 31 sec) 
Heartbeat CPU 0 instructions: 120000000 cycles: 34281396 heartbeat IPC: 3.36909 cumulative IPC: 3.50044 (Simulation time: 0 hr 4 min 56 sec) 
Heartbeat CPU 0 instructions: 130000000 cycles: 37372587 heartbeat IPC: 3.235 cumulative IPC: 3.47849 (Simulation time: 0 hr 5 min 23 sec) 
Heartbeat CPU 0 instructions: 140000000 cycles: 40529940 heartbeat IPC: 3.16721 cumulative IPC: 3.45424 (Simulation time: 0 hr 5 min 50 sec) 
Heartbeat CPU 0 instructions: 150000003 cycles: 43707019 heartbeat IPC: 3.14755 cumulative IPC: 3.43194 (Simulation time: 0 hr 6 min 17 sec) 
Heartbeat CPU 0 instructions: 160000003 cycles: 46439569 heartbeat IPC: 3.65959 cumulative IPC: 3.44534 (Simulation time: 0 hr 6 min 41 sec) 
Heartbeat CPU 0 instructions: 170000001 cycles: 49064411 heartbeat IPC: 3.80975 cumulative IPC: 3.46483 (Simulation time: 0 hr 7 min 4 sec) 
Heartbeat CPU 0 instructions: 180000000 cycles: 51685572 heartbeat IPC: 3.8151 cumulative IPC: 3.4826 (Simulation time: 0 hr 7 min 26 sec) 
Heartbeat CPU 0 instructions: 190000003 cycles: 54307742 heartbeat IPC: 3.81364 cumulative IPC: 3.49858 (Simulation time: 0 hr 7 min 49 sec) 
Heartbeat CPU 0 instructions: 200000003 cycles: 57137666 heartbeat IPC: 3.53366 cumulative IPC: 3.50032 (Simulation time: 0 hr 8 min 14 sec) 

Warmup complete CPU 0 instructions: 200000003 cycles: 57137666 (Simulation time: 0 hr 8 min 14 sec) 

Heartbeat CPU 0 instructions: 210000001 cycles: 63910289 heartbeat IPC: 1.47653 cumulative IPC: 1.47653 (Simulation time: 0 hr 8 min 51 sec) 
Heartbeat CPU 0 instructions: 220000004 cycles: 70545436 heartbeat IPC: 1.50713 cumulative IPC: 1.49167 (Simulation time: 0 hr 9 min 21 sec) 
Heartbeat CPU 0 instructions: 230000003 cycles: 76985526 heartbeat IPC: 1.55277 cumulative IPC: 1.5115 (Simulation time: 0 hr 9 min 48 sec) 
Heartbeat CPU 0 instructions: 240000000 cycles: 83224325 heartbeat IPC: 1.60287 cumulative IPC: 1.53335 (Simulation time: 0 hr 10 min 15 sec) 
Heartbeat CPU 0 instructions: 250000001 cycles: 89783079 heartbeat IPC: 1.52468 cumulative IPC: 1.53161 (Simulation time: 0 hr 10 min 42 sec) 
Heartbeat CPU 0 instructions: 260000002 cycles: 96045173 heartbeat IPC: 1.59691 cumulative IPC: 1.54212 (Simulation time: 0 hr 11 min 9 sec) 
Heartbeat CPU 0 instructions: 270000004 cycles: 102403702 heartbeat IPC: 1.57269 cumulative IPC: 1.54641 (Simulation time: 0 hr 11 min 36 sec) 
Heartbeat CPU 0 instructions: 280000003 cycles: 109018982 heartbeat IPC: 1.51165 cumulative IPC: 1.54198 (Simulation time: 0 hr 12 min 3 sec) 
Heartbeat CPU 0 instructions: 290000004 cycles: 115400623 heartbeat IPC: 1.567 cumulative IPC: 1.54472 (Simulation time: 0 hr 12 min 31 sec) 
Heartbeat CPU 0 instructions: 300000004 cycles: 121538615 heartbeat IPC: 1.6292 cumulative IPC: 1.55277 (Simulation time: 0 hr 12 min 58 sec) 
Heartbeat CPU 0 instructions: 310000002 cycles: 128066621 heartbeat IPC: 1.53186 cumulative IPC: 1.55085 (Simulation time: 0 hr 13 min 24 sec) 
Heartbeat CPU 0 instructions: 320000000 cycles: 134692273 heartbeat IPC: 1.50929 cumulative IPC: 1.5473 (Simulation time: 0 hr 13 min 51 sec) 
Heartbeat CPU 0 instructions: 330000002 cycles: 141229145 heartbeat IPC: 1.52978 cumulative IPC: 1.54594 (Simulation time: 0 hr 14 min 19 sec) 
Heartbeat CPU 0 instructions: 340000003 cycles: 147616928 heartbeat IPC: 1.56549 cumulative IPC: 1.54732 (Simulation time: 0 hr 14 min 46 sec) 
Heartbeat CPU 0 instructions: 350000003 cycles: 153887176 heartbeat IPC: 1.59483 cumulative IPC: 1.5504 (Simulation time: 0 hr 15 min 13 sec) 
Heartbeat CPU 0 instructions: 360000004 cycles: 160395532 heartbeat IPC: 1.53649 cumulative IPC: 1.54952 (Simulation time: 0 hr 15 min 40 sec) 
Heartbeat CPU 0 instructions: 370000004 cycles: 166774626 heartbeat IPC: 1.56762 cumulative IPC: 1.55057 (Simulation time: 0 hr 16 min 7 sec) 
Heartbeat CPU 0 instructions: 380000003 cycles: 173034667 heartbeat IPC: 1.59743 cumulative IPC: 1.5531 (Simulation time: 0 hr 16 min 34 sec) 
Heartbeat CPU 0 instructions: 390000002 cycles: 179602715 heartbeat IPC: 1.52252 cumulative IPC: 1.55146 (Simulation time: 0 hr 17 min 0 sec) 
Heartbeat CPU 0 instructions: 400000000 cycles: 186062480 heartbeat IPC: 1.54804 cumulative IPC: 1.55129 (Simulation time: 0 hr 17 min 29 sec) 
Heartbeat CPU 0 instructions: 410000000 cycles: 192244304 heartbeat IPC: 1.61765 cumulative IPC: 1.55433 (Simulation time: 0 hr 17 min 57 sec) 
Heartbeat CPU 0 instructions: 420000001 cycles: 198669156 heartbeat IPC: 1.55646 cumulative IPC: 1.55442 (Simulation time: 0 hr 18 min 23 sec) 
Heartbeat CPU 0 instructions: 430000003 cycles: 205250550 heartbeat IPC: 1.51944 cumulative IPC: 1.55287 (Simulation time: 0 hr 18 min 49 sec) 
Heartbeat CPU 0 instructions: 440000002 cycles: 211816449 heartbeat IPC: 1.52302 cumulative IPC: 1.5516 (Simulation time: 0 hr 19 min 17 sec) 
Heartbeat CPU 0 instructions: 450000001 cycles: 218122625 heartbeat IPC: 1.58575 cumulative IPC: 1.55294 (Simulation time: 0 hr 19 min 46 sec) 
Heartbeat CPU 0 instructions: 460000003 cycles: 224629418 heartbeat IPC: 1.53686 cumulative IPC: 1.55232 (Simulation time: 0 hr 20 min 12 sec) 
Heartbeat CPU 0 instructions: 470000003 cycles: 231078519 heartbeat IPC: 1.5506 cumulative IPC: 1.55225 (Simulation time: 0 hr 20 min 42 sec) 
Heartbeat CPU 0 instructions: 480000003 cycles: 237028105 heartbeat IPC: 1.68079 cumulative IPC: 1.5565 (Simulation time: 0 hr 21 min 12 sec) 
Heartbeat CPU 0 instructions: 490000003 cycles: 243508902 heartbeat IPC: 1.54302 cumulative IPC: 1.55603 (Simulation time: 0 hr 21 min 38 sec) 
Heartbeat CPU 0 instructions: 500000000 cycles: 250148009 heartbeat IPC: 1.50623 cumulative IPC: 1.55432 (Simulation time: 0 hr 22 min 7 sec) 
Heartbeat CPU 0 instructions: 510000000 cycles: 256565664 heartbeat IPC: 1.5582 cumulative IPC: 1.55445 (Simulation time: 0 hr 22 min 36 sec) 
Heartbeat CPU 0 instructions: 520000001 cycles: 262705908 heartbeat IPC: 1.6286 cumulative IPC: 1.55666 (Simulation time: 0 hr 23 min 6 sec) 
Heartbeat CPU 0 instructions: 530000000 cycles: 268475715 heartbeat IPC: 1.73316 cumulative IPC: 1.56148 (Simulation time: 0 hr 23 min 35 sec) 
Heartbeat CPU 0 instructions: 540000001 cycles: 275068797 heartbeat IPC: 1.51674 cumulative IPC: 1.56013 (Simulation time: 0 hr 24 min 1 sec) 
Heartbeat CPU 0 instructions: 550000001 cycles: 281695725 heartbeat IPC: 1.50899 cumulative IPC: 1.55862 (Simulation time: 0 hr 24 min 28 sec) 
Heartbeat CPU 0 instructions: 560000002 cycles: 288398573 heartbeat IPC: 1.4919 cumulative IPC: 1.55668 (Simulation time: 0 hr 25 min 0 sec) 
Heartbeat CPU 0 instructions: 570000002 cycles: 294765978 heartbeat IPC: 1.5705 cumulative IPC: 1.55705 (Simulation time: 0 hr 25 min 28 sec) 
Heartbeat CPU 0 instructions: 580000000 cycles: 300845203 heartbeat IPC: 1.64495 cumulative IPC: 1.55925 (Simulation time: 0 hr 25 min 58 sec) 
Heartbeat CPU 0 instructions: 590000001 cycles: 306854643 heartbeat IPC: 1.66405 cumulative IPC: 1.56177 (Simulation time: 0 hr 26 min 28 sec) 
Heartbeat CPU 0 instructions: 600000000 cycles: 312714933 heartbeat IPC: 1.7064 cumulative IPC: 1.56508 (Simulation time: 0 hr 26 min 55 sec) 
Heartbeat CPU 0 instructions: 610000001 cycles: 319386571 heartbeat IPC: 1.49888 cumulative IPC: 1.5634 (Simulation time: 0 hr 27 min 23 sec) 
Heartbeat CPU 0 instructions: 620000003 cycles: 326035769 heartbeat IPC: 1.50394 cumulative IPC: 1.56193 (Simulation time: 0 hr 27 min 50 sec) 
Heartbeat CPU 0 instructions: 630000002 cycles: 332630910 heartbeat IPC: 1.51627 cumulative IPC: 1.56084 (Simulation time: 0 hr 28 min 18 sec) 
Heartbeat CPU 0 instructions: 640000000 cycles: 339290777 heartbeat IPC: 1.50153 cumulative IPC: 1.55944 (Simulation time: 0 hr 28 min 51 sec) 
Heartbeat CPU 0 instructions: 650000004 cycles: 345701220 heartbeat IPC: 1.55996 cumulative IPC: 1.55945 (Simulation time: 0 hr 29 min 17 sec) 
Heartbeat CPU 0 instructions: 660000001 cycles: 351926472 heartbeat IPC: 1.60636 cumulative IPC: 1.56044 (Simulation time: 0 hr 29 min 47 sec) 
Heartbeat CPU 0 instructions: 670000004 cycles: 358554157 heartbeat IPC: 1.50882 cumulative IPC: 1.5593 (Simulation time: 0 hr 30 min 14 sec) 
Heartbeat CPU 0 instructions: 680000001 cycles: 364888053 heartbeat IPC: 1.57881 cumulative IPC: 1.55971 (Simulation time: 0 hr 30 min 44 sec) 
Heartbeat CPU 0 instructions: 690000000 cycles: 370809807 heartbeat IPC: 1.68869 cumulative IPC: 1.56214 (Simulation time: 0 hr 31 min 13 sec) 
Heartbeat CPU 0 instructions: 700000003 cycles: 377427781 heartbeat IPC: 1.51104 cumulative IPC: 1.56108 (Simulation time: 0 hr 31 min 40 sec) 
Finished CPU 0 instructions: 500000000 cycles: 320290115 cumulative IPC: 1.56108 (Simulation time: 0 hr 31 min 40 sec) 

ChampSim completed all CPUs

Region of Interest Statistics

CPU 0 cumulative IPC: 1.56108 instructions: 500000000 cycles: 320290115
cpu0_L1I TOTAL     ACCESS:   13646496  HIT:   13646176  MISS:        320
cpu0_L1I LOAD      ACCESS:   13646496  HIT:   13646176  MISS:        320
cpu0_L1I RFO       ACCESS:          0  HIT:          0  MISS:          0
cpu0_L1I PREFETCH  ACCESS:          0  HIT:          0  MISS:          0
cpu0_L1I WRITEBACK ACCESS:          0  HIT:          0  MISS:          0
cpu0_L1I TRANSLATION ACCESS:          0  HIT:          0  MISS:          0
cpu0_L1I PREFETCH  REQUESTED:          0  ISSUED:          0  USEFUL:          0  USELESS:          0
cpu0_L1I AVERAGE MISS LATENCY: 97.675 cycles
cpu0_DTLB TOTAL     ACCESS:  111217734  HIT:  111212580  MISS:       5154
cpu0_DTLB LOAD      ACCESS:   86085925  HIT:   86081455  MISS:       4470
cpu0_DTLB RFO       ACCESS:   25131809  HIT:   25131125  MISS:        684
cpu0_DTLB PREFETCH  ACCESS:          0  HIT:          0  MISS:          0
cpu0_DTLB WRITEBACK ACCESS:          0  HIT:          0  MISS:          0
cpu0_DTLB TRANSLATION ACCESS:          0  HIT:          0  MISS:          0
cpu0_DTLB PREFETCH  REQUESTED:          0  ISSUED:          0  USEFUL:          0  USELESS:          0
cpu0_DTLB AVERAGE MISS LATENCY: 9.88785 cycles
cpu0_ITLB TOTAL     ACCESS:   40652065  HIT:   40652060  MISS:          5
cpu0_ITLB LOAD      ACCESS:   40652065  HIT:   40652060  MISS:          5
cpu0_ITLB RFO       ACCESS:          0  HIT:          0  MISS:          0
cpu0_ITLB PREFETCH  ACCESS:          0  HIT:          0  MISS:          0
cpu0_ITLB WRITEBACK ACCESS:          0  HIT:          0  MISS:          0
cpu0_ITLB TRANSLATION ACCESS:          0  HIT:          0  MISS:          0
cpu0_ITLB PREFETCH  REQUESTED:          0  ISSUED:          0  USEFUL:          0  USELESS:          0
cpu0_ITLB AVERAGE MISS LATENCY: 217 cycles
cpu0_STLB TOTAL     ACCESS:       5159  HIT:       5132  MISS:         27
cpu0_STLB LOAD      ACCESS:       4475  HIT:       4448  MISS:         27
cpu0_STLB RFO       ACCESS:        684  HIT:        684  MISS:          0
cpu0_STLB PREFETCH  ACCESS:          0  HIT:          0  MISS:          0
cpu0_STLB WRITEBACK ACCESS:          0  HIT:          0  MISS:          0
cpu0_STLB TRANSLATION ACCESS:          0  HIT:          0  MISS:          0
cpu0_STLB PREFETCH  REQUESTED:          0  ISSUED:          0  USEFUL:          0  USELESS:          0
cpu0_STLB AVERAGE MISS LATENCY: 208 cycles
cpu0_L1D TOTAL     ACCESS:  140881788  HIT:  140880579  MISS:       1209
cpu0_L1D LOAD      ACCESS:   92084410  HIT:   92083202  MISS:       1208
cpu0_L1D RFO       ACCESS:   48797351  HIT:   48797350  MISS:          1
cpu0_L1D PREFETCH  ACCESS:          0  HIT:          0  MISS:          0
cpu0_L1D WRITEBACK ACCESS:          0  HIT:          0  MISS:          0
cpu0_L1D TRANSLATION ACCESS:         27  HIT:         27  MISS:          0
cpu0_L1D PREFETCH  REQUESTED:          0  ISSUED:          0  USEFUL:          0  USELESS:          0
cpu0_L1D AVERAGE MISS LATENCY: 50.5451 cycles
cpu0_L2C TOTAL     ACCESS:       1529  HIT:          0  MISS:       1529
cpu0_L2C LOAD      ACCESS:       1528  HIT:          0  MISS:       1528
cpu0_L2C RFO       ACCESS:          1  HIT:          0  MISS:          1
cpu0_L2C PREFETCH  ACCESS:          0  HIT:          0  MISS:          0
cpu0_L2C WRITEBACK ACCESS:          0  HIT:          0  MISS:          0
cpu0_L2C TRANSLATION ACCESS:          0  HIT:          0  MISS:          0
cpu0_L2C PREFETCH  REQUESTED:          0  ISSUED:          0  USEFUL:          0  USELESS:          0
cpu0_L2C AVERAGE MISS LATENCY: 49.4048 cycles
LLC TOTAL     ACCESS:       2875  HIT:       1257  MISS:       1618
LLC LOAD      ACCESS:       1528  HIT:       1178  MISS:        350
LLC RFO       ACCESS:          1  HIT:          1  MISS:          0
LLC PREFETCH  ACCESS:       1346  HIT:         78  MISS:       1268
LLC WRITEBACK ACCESS:          0  HIT:          0  MISS:          0
LLC TRANSLATION ACCESS:          0  HIT:          0  MISS:          0
LLC PREFETCH  REQUESTED:       1528  ISSUED:       1528  USEFUL:       1238  USELESS:         30
LLC AVERAGE MISS LATENCY: 146.419 cycles

DRAM Statistics
 CHANNEL 0
 RQ ROW_BUFFER_HIT:        218  ROW_BUFFER_MISS:       1400
 DBUS AVG_CONGESTED_CYCLE:    3.77381
 WQ ROW_BUFFER_HIT:          0  ROW_BUFFER_MISS:          0  FULL:          0


CPU 0 Branch Prediction Accuracy: 85.6342% MPKI: 16.0051 Average ROB Occupancy at Mispredict: 104.175
Branch type MPKI
BRANCH_DIRECT_JUMP: 0.000112
BRANCH_INDIRECT: 0.003538
BRANCH_CONDITIONAL: 16.0012
BRANCH_DIRECT_CALL: 0.000134
BRANCH_INDIRECT_CALL: 0
BRANCH_RETURN: 8.6e-05

