/home/caslab/workspace/sim/ChampSim/bin/champsim --warmup_instructions 200000000 --simulation_instructions 500000000/ /home/caslab/workspace/sim/traces/speccpu_by_champsim465.tonto-44B.champsimtrace.xz
start simulation for 465.tonto-44B.champsimtrace.xz

*** ChampSim Multicore Out-of-Order Simulator ***

Warmup Instructions: 200000000
Simulation Instructions: 500000000
Number of CPUs: 1
Off-chip DRAM Size: 4 GiB Channels: 1 Width: 64-bit Data Rate: 3200 MT/s

VirtualMemory physical capacity: 8588881920 num_ppages: 2096895
VirtualMemory page size: 4096 log2_page_size: 12

CPU 0 runs /home/caslab/workspace/sim/traces/speccpu_by_champsim/465.tonto-44B.champsimtrace.xz
CPU 0 Bimodal branch predictor
Basic BTB sets: 1024 ways: 8 indirect buffer size: 4096 RAS size: 64
LLC next line prefetcher
WARNING: The extended signature CACHE::prefetch_line(ip, base_addr, pf_addr, fill_this_level, prefetch_metadata) is deprecated.
WARNING: Use CACHE::prefetch_line(pf_addr, fill_this_level, prefetch_metadata) instead.
Heartbeat CPU 0 instructions: 10000003 cycles: 2695167 heartbeat IPC: 3.71035 cumulative IPC: 3.71035 (Simulation time: 0 hr 0 min 22 sec) 
Heartbeat CPU 0 instructions: 20000000 cycles: 5492362 heartbeat IPC: 3.57501 cumulative IPC: 3.64142 (Simulation time: 0 hr 0 min 46 sec) 
Heartbeat CPU 0 instructions: 30000003 cycles: 7993750 heartbeat IPC: 3.99778 cumulative IPC: 3.75293 (Simulation time: 0 hr 1 min 7 sec) 
Heartbeat CPU 0 instructions: 40000001 cycles: 10791270 heartbeat IPC: 3.57459 cumulative IPC: 3.7067 (Simulation time: 0 hr 1 min 30 sec) 
Heartbeat CPU 0 instructions: 50000000 cycles: 13387429 heartbeat IPC: 3.85184 cumulative IPC: 3.73485 (Simulation time: 0 hr 1 min 51 sec) 
Heartbeat CPU 0 instructions: 60000003 cycles: 16276130 heartbeat IPC: 3.46176 cumulative IPC: 3.68638 (Simulation time: 0 hr 2 min 15 sec) 
Heartbeat CPU 0 instructions: 70000000 cycles: 19210706 heartbeat IPC: 3.40765 cumulative IPC: 3.6438 (Simulation time: 0 hr 2 min 40 sec) 
Heartbeat CPU 0 instructions: 80000000 cycles: 22227046 heartbeat IPC: 3.31528 cumulative IPC: 3.59922 (Simulation time: 0 hr 3 min 6 sec) 
Heartbeat CPU 0 instructions: 90000001 cycles: 25286745 heartbeat IPC: 3.2683 cumulative IPC: 3.55918 (Simulation time: 0 hr 3 min 32 sec) 
Heartbeat CPU 0 instructions: 100000002 cycles: 27983676 heartbeat IPC: 3.70792 cumulative IPC: 3.57351 (Simulation time: 0 hr 3 min 54 sec) 
Heartbeat CPU 0 instructions: 110000000 cycles: 30586928 heartbeat IPC: 3.84135 cumulative IPC: 3.59631 (Simulation time: 0 hr 4 min 16 sec) 
Heartbeat CPU 0 instructions: 120000002 cycles: 33179105 heartbeat IPC: 3.85776 cumulative IPC: 3.61673 (Simulation time: 0 hr 4 min 37 sec) 
Heartbeat CPU 0 instructions: 130000000 cycles: 35776369 heartbeat IPC: 3.8502 cumulative IPC: 3.63368 (Simulation time: 0 hr 4 min 59 sec) 
Heartbeat CPU 0 instructions: 140000003 cycles: 38317657 heartbeat IPC: 3.93501 cumulative IPC: 3.65367 (Simulation time: 0 hr 5 min 20 sec) 
Heartbeat CPU 0 instructions: 150000003 cycles: 40902085 heartbeat IPC: 3.86933 cumulative IPC: 3.66729 (Simulation time: 0 hr 5 min 42 sec) 
Heartbeat CPU 0 instructions: 160000000 cycles: 43486551 heartbeat IPC: 3.86927 cumulative IPC: 3.6793 (Simulation time: 0 hr 6 min 3 sec) 
Heartbeat CPU 0 instructions: 170000001 cycles: 46071071 heartbeat IPC: 3.86919 cumulative IPC: 3.68995 (Simulation time: 0 hr 6 min 25 sec) 
Heartbeat CPU 0 instructions: 180000002 cycles: 48862581 heartbeat IPC: 3.58229 cumulative IPC: 3.6838 (Simulation time: 0 hr 6 min 50 sec) 
Heartbeat CPU 0 instructions: 190000003 cycles: 51369778 heartbeat IPC: 3.98852 cumulative IPC: 3.69867 (Simulation time: 0 hr 7 min 11 sec) 
Heartbeat CPU 0 instructions: 200000001 cycles: 54053311 heartbeat IPC: 3.72643 cumulative IPC: 3.70005 (Simulation time: 0 hr 7 min 34 sec) 

Warmup complete CPU 0 instructions: 200000001 cycles: 54053311 (Simulation time: 0 hr 7 min 34 sec) 

Heartbeat CPU 0 instructions: 210000002 cycles: 60986575 heartbeat IPC: 1.44232 cumulative IPC: 1.44232 (Simulation time: 0 hr 8 min 1 sec) 
Heartbeat CPU 0 instructions: 220000001 cycles: 68235284 heartbeat IPC: 1.37956 cumulative IPC: 1.41024 (Simulation time: 0 hr 8 min 27 sec) 
Heartbeat CPU 0 instructions: 230000004 cycles: 75412369 heartbeat IPC: 1.39332 cumulative IPC: 1.40456 (Simulation time: 0 hr 8 min 51 sec) 
Heartbeat CPU 0 instructions: 240000001 cycles: 82621006 heartbeat IPC: 1.38722 cumulative IPC: 1.40018 (Simulation time: 0 hr 9 min 13 sec) 
Heartbeat CPU 0 instructions: 250000000 cycles: 90080331 heartbeat IPC: 1.3406 cumulative IPC: 1.38785 (Simulation time: 0 hr 9 min 35 sec) 
Heartbeat CPU 0 instructions: 260000002 cycles: 97580630 heartbeat IPC: 1.33328 cumulative IPC: 1.37844 (Simulation time: 0 hr 9 min 57 sec) 
Heartbeat CPU 0 instructions: 270000003 cycles: 104598220 heartbeat IPC: 1.42499 cumulative IPC: 1.38491 (Simulation time: 0 hr 10 min 21 sec) 
Heartbeat CPU 0 instructions: 280000002 cycles: 111496683 heartbeat IPC: 1.4496 cumulative IPC: 1.39268 (Simulation time: 0 hr 10 min 48 sec) 
Heartbeat CPU 0 instructions: 290000001 cycles: 118354228 heartbeat IPC: 1.45825 cumulative IPC: 1.39967 (Simulation time: 0 hr 11 min 15 sec) 
Heartbeat CPU 0 instructions: 300000001 cycles: 125663818 heartbeat IPC: 1.36807 cumulative IPC: 1.39644 (Simulation time: 0 hr 11 min 43 sec) 
Heartbeat CPU 0 instructions: 310000000 cycles: 132873203 heartbeat IPC: 1.38708 cumulative IPC: 1.39559 (Simulation time: 0 hr 12 min 8 sec) 
Heartbeat CPU 0 instructions: 320000003 cycles: 140092192 heartbeat IPC: 1.38524 cumulative IPC: 1.39472 (Simulation time: 0 hr 12 min 32 sec) 
Heartbeat CPU 0 instructions: 330000004 cycles: 147255611 heartbeat IPC: 1.39598 cumulative IPC: 1.39482 (Simulation time: 0 hr 12 min 55 sec) 
Heartbeat CPU 0 instructions: 340000004 cycles: 154394684 heartbeat IPC: 1.40074 cumulative IPC: 1.39524 (Simulation time: 0 hr 13 min 17 sec) 
Heartbeat CPU 0 instructions: 350000000 cycles: 162003435 heartbeat IPC: 1.31428 cumulative IPC: 1.38953 (Simulation time: 0 hr 13 min 40 sec) 
Heartbeat CPU 0 instructions: 360000004 cycles: 169443672 heartbeat IPC: 1.34404 cumulative IPC: 1.3866 (Simulation time: 0 hr 14 min 1 sec) 
Heartbeat CPU 0 instructions: 370000001 cycles: 176782832 heartbeat IPC: 1.36255 cumulative IPC: 1.38516 (Simulation time: 0 hr 14 min 22 sec) 
Heartbeat CPU 0 instructions: 380000000 cycles: 184469330 heartbeat IPC: 1.30098 cumulative IPC: 1.3802 (Simulation time: 0 hr 14 min 44 sec) 
Heartbeat CPU 0 instructions: 390000001 cycles: 191435869 heartbeat IPC: 1.43543 cumulative IPC: 1.383 (Simulation time: 0 hr 15 min 10 sec) 
Heartbeat CPU 0 instructions: 400000000 cycles: 198391603 heartbeat IPC: 1.43766 cumulative IPC: 1.38563 (Simulation time: 0 hr 15 min 37 sec) 
Heartbeat CPU 0 instructions: 410000004 cycles: 205346544 heartbeat IPC: 1.43783 cumulative IPC: 1.38803 (Simulation time: 0 hr 16 min 4 sec) 
Heartbeat CPU 0 instructions: 420000002 cycles: 212590822 heartbeat IPC: 1.3804 cumulative IPC: 1.38768 (Simulation time: 0 hr 16 min 32 sec) 
Heartbeat CPU 0 instructions: 430000000 cycles: 219911979 heartbeat IPC: 1.3659 cumulative IPC: 1.38672 (Simulation time: 0 hr 16 min 58 sec) 
Heartbeat CPU 0 instructions: 440000002 cycles: 227174524 heartbeat IPC: 1.37693 cumulative IPC: 1.38631 (Simulation time: 0 hr 17 min 22 sec) 
Heartbeat CPU 0 instructions: 450000001 cycles: 234525356 heartbeat IPC: 1.36039 cumulative IPC: 1.38526 (Simulation time: 0 hr 17 min 48 sec) 
Heartbeat CPU 0 instructions: 460000000 cycles: 241757023 heartbeat IPC: 1.38281 cumulative IPC: 1.38516 (Simulation time: 0 hr 18 min 12 sec) 
Heartbeat CPU 0 instructions: 470000004 cycles: 249032434 heartbeat IPC: 1.37449 cumulative IPC: 1.38476 (Simulation time: 0 hr 18 min 35 sec) 
Heartbeat CPU 0 instructions: 480000003 cycles: 256210932 heartbeat IPC: 1.39305 cumulative IPC: 1.38506 (Simulation time: 0 hr 18 min 58 sec) 
Heartbeat CPU 0 instructions: 490000003 cycles: 263414604 heartbeat IPC: 1.38818 cumulative IPC: 1.38517 (Simulation time: 0 hr 19 min 21 sec) 
Heartbeat CPU 0 instructions: 500000000 cycles: 270648303 heartbeat IPC: 1.38242 cumulative IPC: 1.38507 (Simulation time: 0 hr 19 min 43 sec) 
Heartbeat CPU 0 instructions: 510000002 cycles: 277867008 heartbeat IPC: 1.38529 cumulative IPC: 1.38508 (Simulation time: 0 hr 20 min 5 sec) 
Heartbeat CPU 0 instructions: 520000001 cycles: 285110489 heartbeat IPC: 1.38055 cumulative IPC: 1.38494 (Simulation time: 0 hr 20 min 27 sec) 
Heartbeat CPU 0 instructions: 530000004 cycles: 292612979 heartbeat IPC: 1.33289 cumulative IPC: 1.3833 (Simulation time: 0 hr 20 min 49 sec) 
Heartbeat CPU 0 instructions: 540000003 cycles: 299670853 heartbeat IPC: 1.41686 cumulative IPC: 1.38427 (Simulation time: 0 hr 21 min 11 sec) 
Heartbeat CPU 0 instructions: 550000004 cycles: 307165815 heartbeat IPC: 1.33423 cumulative IPC: 1.38278 (Simulation time: 0 hr 21 min 36 sec) 
Heartbeat CPU 0 instructions: 560000000 cycles: 314721763 heartbeat IPC: 1.32346 cumulative IPC: 1.38106 (Simulation time: 0 hr 22 min 4 sec) 
Heartbeat CPU 0 instructions: 570000003 cycles: 322726368 heartbeat IPC: 1.24928 cumulative IPC: 1.37714 (Simulation time: 0 hr 22 min 36 sec) 
Heartbeat CPU 0 instructions: 580000000 cycles: 330229176 heartbeat IPC: 1.33283 cumulative IPC: 1.37593 (Simulation time: 0 hr 23 min 4 sec) 
Heartbeat CPU 0 instructions: 590000001 cycles: 338112318 heartbeat IPC: 1.26853 cumulative IPC: 1.37295 (Simulation time: 0 hr 23 min 35 sec) 
Heartbeat CPU 0 instructions: 600000000 cycles: 345652801 heartbeat IPC: 1.32617 cumulative IPC: 1.37174 (Simulation time: 0 hr 24 min 4 sec) 
Heartbeat CPU 0 instructions: 610000000 cycles: 352788261 heartbeat IPC: 1.40145 cumulative IPC: 1.37245 (Simulation time: 0 hr 24 min 31 sec) 
Heartbeat CPU 0 instructions: 620000000 cycles: 360428370 heartbeat IPC: 1.30888 cumulative IPC: 1.37087 (Simulation time: 0 hr 24 min 53 sec) 
Heartbeat CPU 0 instructions: 630000004 cycles: 367367957 heartbeat IPC: 1.44101 cumulative IPC: 1.37242 (Simulation time: 0 hr 25 min 17 sec) 
Heartbeat CPU 0 instructions: 640000004 cycles: 374382276 heartbeat IPC: 1.42566 cumulative IPC: 1.37359 (Simulation time: 0 hr 25 min 47 sec) 
Heartbeat CPU 0 instructions: 650000004 cycles: 381527462 heartbeat IPC: 1.39954 cumulative IPC: 1.37415 (Simulation time: 0 hr 26 min 12 sec) 
Heartbeat CPU 0 instructions: 660000000 cycles: 388669450 heartbeat IPC: 1.40017 cumulative IPC: 1.37471 (Simulation time: 0 hr 26 min 34 sec) 
Heartbeat CPU 0 instructions: 670000004 cycles: 395981734 heartbeat IPC: 1.36756 cumulative IPC: 1.37456 (Simulation time: 0 hr 26 min 56 sec) 
Heartbeat CPU 0 instructions: 680000002 cycles: 403325162 heartbeat IPC: 1.36176 cumulative IPC: 1.37429 (Simulation time: 0 hr 27 min 18 sec) 
Heartbeat CPU 0 instructions: 690000004 cycles: 410873464 heartbeat IPC: 1.3248 cumulative IPC: 1.37324 (Simulation time: 0 hr 27 min 40 sec) 
Heartbeat CPU 0 instructions: 700000001 cycles: 417793302 heartbeat IPC: 1.44512 cumulative IPC: 1.37461 (Simulation time: 0 hr 28 min 5 sec) 
Finished CPU 0 instructions: 500000000 cycles: 363739991 cumulative IPC: 1.37461 (Simulation time: 0 hr 28 min 5 sec) 

ChampSim completed all CPUs

Region of Interest Statistics

CPU 0 cumulative IPC: 1.37461 instructions: 500000000 cycles: 363739991
cpu0_L1I TOTAL     ACCESS:   52030047  HIT:   52030024  MISS:         23
cpu0_L1I LOAD      ACCESS:   52030047  HIT:   52030024  MISS:         23
cpu0_L1I RFO       ACCESS:          0  HIT:          0  MISS:          0
cpu0_L1I PREFETCH  ACCESS:          0  HIT:          0  MISS:          0
cpu0_L1I WRITEBACK ACCESS:          0  HIT:          0  MISS:          0
cpu0_L1I TRANSLATION ACCESS:          0  HIT:          0  MISS:          0
cpu0_L1I PREFETCH  REQUESTED:          0  ISSUED:          0  USEFUL:          0  USELESS:          0
cpu0_L1I AVERAGE MISS LATENCY: 110.87 cycles
cpu0_DTLB TOTAL     ACCESS:  102244007  HIT:  102243002  MISS:       1005
cpu0_DTLB LOAD      ACCESS:   71024805  HIT:   71023813  MISS:        992
cpu0_DTLB RFO       ACCESS:   31219202  HIT:   31219189  MISS:         13
cpu0_DTLB PREFETCH  ACCESS:          0  HIT:          0  MISS:          0
cpu0_DTLB WRITEBACK ACCESS:          0  HIT:          0  MISS:          0
cpu0_DTLB TRANSLATION ACCESS:          0  HIT:          0  MISS:          0
cpu0_DTLB PREFETCH  REQUESTED:          0  ISSUED:          0  USEFUL:          0  USELESS:          0
cpu0_DTLB AVERAGE MISS LATENCY: 29.0129 cycles
cpu0_ITLB TOTAL     ACCESS:   32322283  HIT:   32322283  MISS:          0
cpu0_ITLB LOAD      ACCESS:   32322283  HIT:   32322283  MISS:          0
cpu0_ITLB RFO       ACCESS:          0  HIT:          0  MISS:          0
cpu0_ITLB PREFETCH  ACCESS:          0  HIT:          0  MISS:          0
cpu0_ITLB WRITEBACK ACCESS:          0  HIT:          0  MISS:          0
cpu0_ITLB TRANSLATION ACCESS:          0  HIT:          0  MISS:          0
cpu0_ITLB PREFETCH  REQUESTED:          0  ISSUED:          0  USEFUL:          0  USELESS:          0
cpu0_ITLB AVERAGE MISS LATENCY: -nan cycles
cpu0_STLB TOTAL     ACCESS:       1005  HIT:        907  MISS:         98
cpu0_STLB LOAD      ACCESS:        992  HIT:        894  MISS:         98
cpu0_STLB RFO       ACCESS:         13  HIT:         13  MISS:          0
cpu0_STLB PREFETCH  ACCESS:          0  HIT:          0  MISS:          0
cpu0_STLB WRITEBACK ACCESS:          0  HIT:          0  MISS:          0
cpu0_STLB TRANSLATION ACCESS:          0  HIT:          0  MISS:          0
cpu0_STLB PREFETCH  REQUESTED:          0  ISSUED:          0  USEFUL:          0  USELESS:          0
cpu0_STLB AVERAGE MISS LATENCY: 205.224 cycles
cpu0_L1D TOTAL     ACCESS:  151826642  HIT:  151821005  MISS:       5637
cpu0_L1D LOAD      ACCESS:   88089402  HIT:   88083765  MISS:       5637
cpu0_L1D RFO       ACCESS:   63737142  HIT:   63737142  MISS:          0
cpu0_L1D PREFETCH  ACCESS:          0  HIT:          0  MISS:          0
cpu0_L1D WRITEBACK ACCESS:          0  HIT:          0  MISS:          0
cpu0_L1D TRANSLATION ACCESS:         98  HIT:         98  MISS:          0
cpu0_L1D PREFETCH  REQUESTED:          0  ISSUED:          0  USEFUL:          0  USELESS:          0
cpu0_L1D AVERAGE MISS LATENCY: 119.234 cycles
cpu0_L2C TOTAL     ACCESS:       5660  HIT:          0  MISS:       5660
cpu0_L2C LOAD      ACCESS:       5660  HIT:          0  MISS:       5660
cpu0_L2C RFO       ACCESS:          0  HIT:          0  MISS:          0
cpu0_L2C PREFETCH  ACCESS:          0  HIT:          0  MISS:          0
cpu0_L2C WRITEBACK ACCESS:          0  HIT:          0  MISS:          0
cpu0_L2C TRANSLATION ACCESS:          0  HIT:          0  MISS:          0
cpu0_L2C PREFETCH  REQUESTED:          0  ISSUED:          0  USEFUL:          0  USELESS:          0
cpu0_L2C AVERAGE MISS LATENCY: 108.169 cycles
LLC TOTAL     ACCESS:       9553  HIT:       3120  MISS:       6433
LLC LOAD      ACCESS:       5660  HIT:       2245  MISS:       3415
LLC RFO       ACCESS:          0  HIT:          0  MISS:          0
LLC PREFETCH  ACCESS:       3893  HIT:        875  MISS:       3018
LLC WRITEBACK ACCESS:          0  HIT:          0  MISS:          0
LLC TRANSLATION ACCESS:          0  HIT:          0  MISS:          0
LLC PREFETCH  REQUESTED:       5660  ISSUED:       5660  USEFUL:       2604  USELESS:         27
LLC AVERAGE MISS LATENCY: 142.202 cycles

DRAM Statistics
 CHANNEL 0
 RQ ROW_BUFFER_HIT:       1613  ROW_BUFFER_MISS:       4820
 DBUS AVG_CONGESTED_CYCLE:    3.62688
 WQ ROW_BUFFER_HIT:          0  ROW_BUFFER_MISS:          0  FULL:          0


CPU 0 Branch Prediction Accuracy: 88.3596% MPKI: 17.8089 Average ROB Occupancy at Mispredict: 40.2612
Branch type MPKI
BRANCH_DIRECT_JUMP: 1e-05
BRANCH_INDIRECT: 0.00694
BRANCH_CONDITIONAL: 17.8019
BRANCH_DIRECT_CALL: 1.8e-05
BRANCH_INDIRECT_CALL: 0
BRANCH_RETURN: 1.6e-05

