/home/caslab/workspace/sim/ChampSim/bin/champsim --warmup_instructions 200000000 --simulation_instructions 500000000/ /home/caslab/workspace/sim/traces/speccpu_by_champsim470.lbm-1274B.champsimtrace.xz
start simulation for 470.lbm-1274B.champsimtrace.xz

*** ChampSim Multicore Out-of-Order Simulator ***

Warmup Instructions: 200000000
Simulation Instructions: 500000000
Number of CPUs: 1
Off-chip DRAM Size: 4 GiB Channels: 1 Width: 64-bit Data Rate: 3200 MT/s

VirtualMemory physical capacity: 8588881920 num_ppages: 2096895
VirtualMemory page size: 4096 log2_page_size: 12

CPU 0 runs /home/caslab/workspace/sim/traces/speccpu_by_champsim/470.lbm-1274B.champsimtrace.xz
CPU 0 Bimodal branch predictor
Basic BTB sets: 1024 ways: 8 indirect buffer size: 4096 RAS size: 64
LLC next line prefetcher
WARNING: The extended signature CACHE::prefetch_line(ip, base_addr, pf_addr, fill_this_level, prefetch_metadata) is deprecated.
WARNING: Use CACHE::prefetch_line(pf_addr, fill_this_level, prefetch_metadata) instead.
Heartbeat CPU 0 instructions: 10000000 cycles: 2503611 heartbeat IPC: 3.99423 cumulative IPC: 3.99423 (Simulation time: 0 hr 0 min 18 sec) 
Heartbeat CPU 0 instructions: 20000000 cycles: 5005953 heartbeat IPC: 3.99626 cumulative IPC: 3.99524 (Simulation time: 0 hr 0 min 37 sec) 
Heartbeat CPU 0 instructions: 30000002 cycles: 7509468 heartbeat IPC: 3.99438 cumulative IPC: 3.99496 (Simulation time: 0 hr 0 min 55 sec) 
Heartbeat CPU 0 instructions: 40000000 cycles: 10012980 heartbeat IPC: 3.99439 cumulative IPC: 3.99481 (Simulation time: 0 hr 1 min 13 sec) 
Heartbeat CPU 0 instructions: 50000003 cycles: 12516493 heartbeat IPC: 3.99439 cumulative IPC: 3.99473 (Simulation time: 0 hr 1 min 31 sec) 
Heartbeat CPU 0 instructions: 60000003 cycles: 15020007 heartbeat IPC: 3.99439 cumulative IPC: 3.99467 (Simulation time: 0 hr 1 min 49 sec) 
Heartbeat CPU 0 instructions: 70000001 cycles: 17523520 heartbeat IPC: 3.99439 cumulative IPC: 3.99463 (Simulation time: 0 hr 2 min 8 sec) 
Heartbeat CPU 0 instructions: 80000003 cycles: 20025862 heartbeat IPC: 3.99626 cumulative IPC: 3.99483 (Simulation time: 0 hr 2 min 26 sec) 
Heartbeat CPU 0 instructions: 90000001 cycles: 22529376 heartbeat IPC: 3.99438 cumulative IPC: 3.99478 (Simulation time: 0 hr 2 min 44 sec) 
Heartbeat CPU 0 instructions: 100000000 cycles: 25032887 heartbeat IPC: 3.99439 cumulative IPC: 3.99475 (Simulation time: 0 hr 3 min 2 sec) 
Heartbeat CPU 0 instructions: 110000003 cycles: 27536400 heartbeat IPC: 3.99439 cumulative IPC: 3.99471 (Simulation time: 0 hr 3 min 21 sec) 
Heartbeat CPU 0 instructions: 120000003 cycles: 30039914 heartbeat IPC: 3.99439 cumulative IPC: 3.99469 (Simulation time: 0 hr 3 min 39 sec) 
Heartbeat CPU 0 instructions: 130000000 cycles: 32543428 heartbeat IPC: 3.99438 cumulative IPC: 3.99466 (Simulation time: 0 hr 3 min 57 sec) 
Heartbeat CPU 0 instructions: 140000002 cycles: 35046943 heartbeat IPC: 3.99438 cumulative IPC: 3.99464 (Simulation time: 0 hr 4 min 15 sec) 
Heartbeat CPU 0 instructions: 150000003 cycles: 37549283 heartbeat IPC: 3.99626 cumulative IPC: 3.99475 (Simulation time: 0 hr 4 min 34 sec) 
Heartbeat CPU 0 instructions: 160000000 cycles: 40052797 heartbeat IPC: 3.99438 cumulative IPC: 3.99473 (Simulation time: 0 hr 4 min 53 sec) 
Heartbeat CPU 0 instructions: 170000002 cycles: 42556312 heartbeat IPC: 3.99438 cumulative IPC: 3.99471 (Simulation time: 0 hr 5 min 11 sec) 
Heartbeat CPU 0 instructions: 180000000 cycles: 45059824 heartbeat IPC: 3.99439 cumulative IPC: 3.99469 (Simulation time: 0 hr 5 min 30 sec) 
Heartbeat CPU 0 instructions: 190000003 cycles: 47563337 heartbeat IPC: 3.99439 cumulative IPC: 3.99467 (Simulation time: 0 hr 5 min 48 sec) 
Heartbeat CPU 0 instructions: 200000003 cycles: 50066851 heartbeat IPC: 3.99439 cumulative IPC: 3.99466 (Simulation time: 0 hr 6 min 7 sec) 

Warmup complete CPU 0 instructions: 200000003 cycles: 50066851 (Simulation time: 0 hr 6 min 7 sec) 

Heartbeat CPU 0 instructions: 210000000 cycles: 61581372 heartbeat IPC: 0.868468 cumulative IPC: 0.868468 (Simulation time: 0 hr 6 min 53 sec) 
Heartbeat CPU 0 instructions: 220000004 cycles: 73294959 heartbeat IPC: 0.85371 cumulative IPC: 0.861026 (Simulation time: 0 hr 7 min 40 sec) 
Heartbeat CPU 0 instructions: 230000000 cycles: 84942581 heartbeat IPC: 0.858544 cumulative IPC: 0.860197 (Simulation time: 0 hr 8 min 26 sec) 
Heartbeat CPU 0 instructions: 240000002 cycles: 96552201 heartbeat IPC: 0.861355 cumulative IPC: 0.860486 (Simulation time: 0 hr 9 min 13 sec) 
Heartbeat CPU 0 instructions: 250000001 cycles: 108240173 heartbeat IPC: 0.85558 cumulative IPC: 0.8595 (Simulation time: 0 hr 9 min 59 sec) 
Heartbeat CPU 0 instructions: 260000003 cycles: 119747746 heartbeat IPC: 0.868993 cumulative IPC: 0.861068 (Simulation time: 0 hr 10 min 46 sec) 
Heartbeat CPU 0 instructions: 270000000 cycles: 143694453 heartbeat IPC: 0.417594 cumulative IPC: 0.747643 (Simulation time: 0 hr 12 min 36 sec) 
Heartbeat CPU 0 instructions: 280000002 cycles: 155276597 heartbeat IPC: 0.863398 cumulative IPC: 0.760386 (Simulation time: 0 hr 13 min 22 sec) 
Heartbeat CPU 0 instructions: 290000004 cycles: 166909546 heartbeat IPC: 0.859627 cumulative IPC: 0.770266 (Simulation time: 0 hr 14 min 9 sec) 
Heartbeat CPU 0 instructions: 300000002 cycles: 178515235 heartbeat IPC: 0.861646 cumulative IPC: 0.778523 (Simulation time: 0 hr 14 min 55 sec) 
Heartbeat CPU 0 instructions: 310000001 cycles: 190588188 heartbeat IPC: 0.828298 cumulative IPC: 0.782799 (Simulation time: 0 hr 15 min 44 sec) 
Heartbeat CPU 0 instructions: 320000004 cycles: 202925406 heartbeat IPC: 0.810556 cumulative IPC: 0.785039 (Simulation time: 0 hr 16 min 33 sec) 
Heartbeat CPU 0 instructions: 330000003 cycles: 215570433 heartbeat IPC: 0.790825 cumulative IPC: 0.785482 (Simulation time: 0 hr 17 min 24 sec) 
Heartbeat CPU 0 instructions: 340000003 cycles: 228413285 heartbeat IPC: 0.778643 cumulative IPC: 0.784989 (Simulation time: 0 hr 18 min 16 sec) 
Heartbeat CPU 0 instructions: 350000000 cycles: 241468991 heartbeat IPC: 0.765948 cumulative IPC: 0.78369 (Simulation time: 0 hr 19 min 9 sec) 
Heartbeat CPU 0 instructions: 360000002 cycles: 254396038 heartbeat IPC: 0.773572 cumulative IPC: 0.78305 (Simulation time: 0 hr 20 min 2 sec) 
Heartbeat CPU 0 instructions: 370000000 cycles: 267183473 heartbeat IPC: 0.782018 cumulative IPC: 0.782989 (Simulation time: 0 hr 20 min 54 sec) 
Heartbeat CPU 0 instructions: 380000001 cycles: 279900335 heartbeat IPC: 0.786358 cumulative IPC: 0.783176 (Simulation time: 0 hr 21 min 46 sec) 
Heartbeat CPU 0 instructions: 390000003 cycles: 292758937 heartbeat IPC: 0.77769 cumulative IPC: 0.782885 (Simulation time: 0 hr 22 min 39 sec) 
Heartbeat CPU 0 instructions: 400000003 cycles: 305519473 heartbeat IPC: 0.783666 cumulative IPC: 0.782924 (Simulation time: 0 hr 23 min 30 sec) 
Heartbeat CPU 0 instructions: 410000001 cycles: 317803986 heartbeat IPC: 0.814033 cumulative IPC: 0.784351 (Simulation time: 0 hr 24 min 20 sec) 
Heartbeat CPU 0 instructions: 420000003 cycles: 329924452 heartbeat IPC: 0.825051 cumulative IPC: 0.786114 (Simulation time: 0 hr 25 min 10 sec) 
Heartbeat CPU 0 instructions: 430000003 cycles: 341882272 heartbeat IPC: 0.836273 cumulative IPC: 0.788169 (Simulation time: 0 hr 25 min 57 sec) 
Heartbeat CPU 0 instructions: 440000001 cycles: 353384410 heartbeat IPC: 0.869403 cumulative IPC: 0.79125 (Simulation time: 0 hr 26 min 44 sec) 
Heartbeat CPU 0 instructions: 450000003 cycles: 364854958 heartbeat IPC: 0.871798 cumulative IPC: 0.794185 (Simulation time: 0 hr 27 min 30 sec) 
Heartbeat CPU 0 instructions: 460000001 cycles: 376270723 heartbeat IPC: 0.875981 cumulative IPC: 0.797048 (Simulation time: 0 hr 28 min 17 sec) 
Heartbeat CPU 0 instructions: 470000003 cycles: 387836832 heartbeat IPC: 0.864595 cumulative IPC: 0.799361 (Simulation time: 0 hr 29 min 3 sec) 
Heartbeat CPU 0 instructions: 480000000 cycles: 399358559 heartbeat IPC: 0.867925 cumulative IPC: 0.801622 (Simulation time: 0 hr 29 min 50 sec) 
Heartbeat CPU 0 instructions: 490000003 cycles: 410945020 heartbeat IPC: 0.863077 cumulative IPC: 0.803595 (Simulation time: 0 hr 30 min 36 sec) 
Heartbeat CPU 0 instructions: 500000000 cycles: 422470135 heartbeat IPC: 0.86767 cumulative IPC: 0.805578 (Simulation time: 0 hr 31 min 23 sec) 
Heartbeat CPU 0 instructions: 510000002 cycles: 433922249 heartbeat IPC: 0.873201 cumulative IPC: 0.807596 (Simulation time: 0 hr 32 min 9 sec) 
Heartbeat CPU 0 instructions: 520000004 cycles: 445423196 heartbeat IPC: 0.869494 cumulative IPC: 0.809396 (Simulation time: 0 hr 32 min 55 sec) 
Heartbeat CPU 0 instructions: 530000003 cycles: 456862302 heartbeat IPC: 0.874194 cumulative IPC: 0.811219 (Simulation time: 0 hr 33 min 41 sec) 
Heartbeat CPU 0 instructions: 540000004 cycles: 468437013 heartbeat IPC: 0.863953 cumulative IPC: 0.812677 (Simulation time: 0 hr 34 min 27 sec) 
Heartbeat CPU 0 instructions: 550000003 cycles: 479967115 heartbeat IPC: 0.867295 cumulative IPC: 0.814142 (Simulation time: 0 hr 35 min 13 sec) 
Heartbeat CPU 0 instructions: 560000004 cycles: 491444284 heartbeat IPC: 0.871295 cumulative IPC: 0.815628 (Simulation time: 0 hr 36 min 0 sec) 
Heartbeat CPU 0 instructions: 570000001 cycles: 503083919 heartbeat IPC: 0.859133 cumulative IPC: 0.816746 (Simulation time: 0 hr 36 min 47 sec) 
Heartbeat CPU 0 instructions: 580000003 cycles: 514636558 heartbeat IPC: 0.865603 cumulative IPC: 0.817961 (Simulation time: 0 hr 37 min 34 sec) 
Heartbeat CPU 0 instructions: 590000002 cycles: 526085699 heartbeat IPC: 0.873428 cumulative IPC: 0.819295 (Simulation time: 0 hr 38 min 20 sec) 
Heartbeat CPU 0 instructions: 600000004 cycles: 537566072 heartbeat IPC: 0.871052 cumulative IPC: 0.820514 (Simulation time: 0 hr 39 min 6 sec) 
Heartbeat CPU 0 instructions: 610000000 cycles: 549062304 heartbeat IPC: 0.86985 cumulative IPC: 0.821651 (Simulation time: 0 hr 39 min 52 sec) 
Heartbeat CPU 0 instructions: 620000003 cycles: 560592895 heartbeat IPC: 0.867258 cumulative IPC: 0.822681 (Simulation time: 0 hr 40 min 39 sec) 
Heartbeat CPU 0 instructions: 630000000 cycles: 572154357 heartbeat IPC: 0.864942 cumulative IPC: 0.823617 (Simulation time: 0 hr 41 min 25 sec) 
Heartbeat CPU 0 instructions: 640000002 cycles: 583696249 heartbeat IPC: 0.866409 cumulative IPC: 0.824542 (Simulation time: 0 hr 42 min 11 sec) 
Heartbeat CPU 0 instructions: 650000000 cycles: 595200236 heartbeat IPC: 0.869264 cumulative IPC: 0.825486 (Simulation time: 0 hr 42 min 57 sec) 
Heartbeat CPU 0 instructions: 660000001 cycles: 606591094 heartbeat IPC: 0.877897 cumulative IPC: 0.826559 (Simulation time: 0 hr 43 min 43 sec) 
Heartbeat CPU 0 instructions: 670000004 cycles: 618064288 heartbeat IPC: 0.871597 cumulative IPC: 0.827469 (Simulation time: 0 hr 44 min 29 sec) 
Heartbeat CPU 0 instructions: 680000001 cycles: 629653449 heartbeat IPC: 0.862875 cumulative IPC: 0.828176 (Simulation time: 0 hr 45 min 16 sec) 
Heartbeat CPU 0 instructions: 690000004 cycles: 641166087 heartbeat IPC: 0.868611 cumulative IPC: 0.828964 (Simulation time: 0 hr 46 min 2 sec) 
Heartbeat CPU 0 instructions: 700000002 cycles: 652876964 heartbeat IPC: 0.853907 cumulative IPC: 0.829449 (Simulation time: 0 hr 46 min 51 sec) 
Finished CPU 0 instructions: 500000004 cycles: 602810114 cumulative IPC: 0.829449 (Simulation time: 0 hr 46 min 51 sec) 

ChampSim completed all CPUs

Region of Interest Statistics

CPU 0 cumulative IPC: 0.829449 instructions: 500000004 cycles: 602810114
cpu0_L1I TOTAL     ACCESS:         15  HIT:          7  MISS:          8
cpu0_L1I LOAD      ACCESS:         15  HIT:          7  MISS:          8
cpu0_L1I RFO       ACCESS:          0  HIT:          0  MISS:          0
cpu0_L1I PREFETCH  ACCESS:          0  HIT:          0  MISS:          0
cpu0_L1I WRITEBACK ACCESS:          0  HIT:          0  MISS:          0
cpu0_L1I TRANSLATION ACCESS:          0  HIT:          0  MISS:          0
cpu0_L1I PREFETCH  REQUESTED:          0  ISSUED:          0  USEFUL:          0  USELESS:          0
cpu0_L1I AVERAGE MISS LATENCY: 449.875 cycles
cpu0_DTLB TOTAL     ACCESS:   59195450  HIT:   58963666  MISS:     231784
cpu0_DTLB LOAD      ACCESS:   25909038  HIT:   25851095  MISS:      57943
cpu0_DTLB RFO       ACCESS:   33286412  HIT:   33112571  MISS:     173841
cpu0_DTLB PREFETCH  ACCESS:          0  HIT:          0  MISS:          0
cpu0_DTLB WRITEBACK ACCESS:          0  HIT:          0  MISS:          0
cpu0_DTLB TRANSLATION ACCESS:          0  HIT:          0  MISS:          0
cpu0_DTLB PREFETCH  REQUESTED:          0  ISSUED:          0  USEFUL:          0  USELESS:          0
cpu0_DTLB AVERAGE MISS LATENCY: 86.8395 cycles
cpu0_ITLB TOTAL     ACCESS:     600117  HIT:     600116  MISS:          1
cpu0_ITLB LOAD      ACCESS:     600117  HIT:     600116  MISS:          1
cpu0_ITLB RFO       ACCESS:          0  HIT:          0  MISS:          0
cpu0_ITLB PREFETCH  ACCESS:          0  HIT:          0  MISS:          0
cpu0_ITLB WRITEBACK ACCESS:          0  HIT:          0  MISS:          0
cpu0_ITLB TRANSLATION ACCESS:          0  HIT:          0  MISS:          0
cpu0_ITLB PREFETCH  REQUESTED:          0  ISSUED:          0  USEFUL:          0  USELESS:          0
cpu0_ITLB AVERAGE MISS LATENCY: 411 cycles
cpu0_STLB TOTAL     ACCESS:     231785  HIT:     115113  MISS:     116672
cpu0_STLB LOAD      ACCESS:      57944  HIT:          0  MISS:      57944
cpu0_STLB RFO       ACCESS:     173841  HIT:     115113  MISS:      58728
cpu0_STLB PREFETCH  ACCESS:          0  HIT:          0  MISS:          0
cpu0_STLB WRITEBACK ACCESS:          0  HIT:          0  MISS:          0
cpu0_STLB TRANSLATION ACCESS:          0  HIT:          0  MISS:          0
cpu0_STLB PREFETCH  REQUESTED:          0  ISSUED:          0  USEFUL:          0  USELESS:          0
cpu0_STLB AVERAGE MISS LATENCY: 154.642 cycles
cpu0_L1D TOTAL     ACCESS:   76111456  HIT:   61290329  MISS:   14821127
cpu0_L1D LOAD      ACCESS:   24713841  HIT:   21005826  MISS:    3708015
cpu0_L1D RFO       ACCESS:   51280957  HIT:   40167877  MISS:   11113080
cpu0_L1D PREFETCH  ACCESS:          0  HIT:          0  MISS:          0
cpu0_L1D WRITEBACK ACCESS:          0  HIT:          0  MISS:          0
cpu0_L1D TRANSLATION ACCESS:     116658  HIT:     116626  MISS:         32
cpu0_L1D PREFETCH  REQUESTED:          0  ISSUED:          0  USEFUL:          0  USELESS:          0
cpu0_L1D AVERAGE MISS LATENCY: 172.694 cycles
cpu0_L2C TOTAL     ACCESS:   25934483  HIT:   18468221  MISS:    7466262
cpu0_L2C LOAD      ACCESS:    3708024  HIT:          2  MISS:    3708022
cpu0_L2C RFO       ACCESS:   11113080  HIT:    7354874  MISS:    3758206
cpu0_L2C PREFETCH  ACCESS:          0  HIT:          0  MISS:          0
cpu0_L2C WRITEBACK ACCESS:   11113347  HIT:   11113344  MISS:          3
cpu0_L2C TRANSLATION ACCESS:         32  HIT:          1  MISS:         31
cpu0_L2C PREFETCH  REQUESTED:          0  ISSUED:          0  USEFUL:          0  USELESS:          0
cpu0_L2C AVERAGE MISS LATENCY: 320.785 cycles
LLC TOTAL     ACCESS:   11987787  HIT:     704341  MISS:   11283446
LLC LOAD      ACCESS:    3708022  HIT:     702653  MISS:    3005369
LLC RFO       ACCESS:    3758206  HIT:          2  MISS:    3758204
LLC PREFETCH  ACCESS:     762264  HIT:       1682  MISS:     760582
LLC WRITEBACK ACCESS:    3759264  HIT:          4  MISS:    3759260
LLC TRANSLATION ACCESS:         31  HIT:          0  MISS:         31
LLC PREFETCH  REQUESTED:    3708023  ISSUED:    3708023  USEFUL:    1474486  USELESS:      57930
LLC AVERAGE MISS LATENCY: 205.076 cycles

DRAM Statistics
 CHANNEL 0
 RQ ROW_BUFFER_HIT:     122552  ROW_BUFFER_MISS:    7401634
 DBUS AVG_CONGESTED_CYCLE:    3.98549
 WQ ROW_BUFFER_HIT:     209812  ROW_BUFFER_MISS:    3549138  FULL:          0


CPU 0 Branch Prediction Accuracy: 99.3163% MPKI: 0.096186 Average ROB Occupancy at Mispredict: 182.799
Branch type MPKI
BRANCH_DIRECT_JUMP: 2e-06
BRANCH_INDIRECT: 0
BRANCH_CONDITIONAL: 0.096176
BRANCH_DIRECT_CALL: 4e-06
BRANCH_INDIRECT_CALL: 0
BRANCH_RETURN: 4e-06

