/home/caslab/workspace/sim/ChampSim/bin/champsim --warmup_instructions 200000000 --simulation_instructions 500000000/ /home/caslab/workspace/sim/traces/speccpu_by_champsim471.omnetpp-188B.champsimtrace.xz
start simulation for 471.omnetpp-188B.champsimtrace.xz

*** ChampSim Multicore Out-of-Order Simulator ***

Warmup Instructions: 200000000
Simulation Instructions: 500000000
Number of CPUs: 1
Off-chip DRAM Size: 4 GiB Channels: 1 Width: 64-bit Data Rate: 3200 MT/s

VirtualMemory physical capacity: 8588881920 num_ppages: 2096895
VirtualMemory page size: 4096 log2_page_size: 12

CPU 0 runs /home/caslab/workspace/sim/traces/speccpu_by_champsim/471.omnetpp-188B.champsimtrace.xz
CPU 0 Bimodal branch predictor
Basic BTB sets: 1024 ways: 8 indirect buffer size: 4096 RAS size: 64
LLC next line prefetcher
WARNING: The extended signature CACHE::prefetch_line(ip, base_addr, pf_addr, fill_this_level, prefetch_metadata) is deprecated.
WARNING: Use CACHE::prefetch_line(pf_addr, fill_this_level, prefetch_metadata) instead.
Heartbeat CPU 0 instructions: 10000000 cycles: 2500334 heartbeat IPC: 3.99947 cumulative IPC: 3.99947 (Simulation time: 0 hr 0 min 23 sec) 
Heartbeat CPU 0 instructions: 20000002 cycles: 5000342 heartbeat IPC: 3.99999 cumulative IPC: 3.99973 (Simulation time: 0 hr 0 min 47 sec) 
Heartbeat CPU 0 instructions: 30000003 cycles: 7500345 heartbeat IPC: 4 cumulative IPC: 3.99982 (Simulation time: 0 hr 1 min 10 sec) 
Heartbeat CPU 0 instructions: 40000003 cycles: 10000345 heartbeat IPC: 4 cumulative IPC: 3.99986 (Simulation time: 0 hr 1 min 34 sec) 
Heartbeat CPU 0 instructions: 50000001 cycles: 12500381 heartbeat IPC: 3.99994 cumulative IPC: 3.99988 (Simulation time: 0 hr 1 min 58 sec) 
Heartbeat CPU 0 instructions: 60000001 cycles: 15000397 heartbeat IPC: 3.99997 cumulative IPC: 3.99989 (Simulation time: 0 hr 2 min 22 sec) 
Heartbeat CPU 0 instructions: 70000000 cycles: 17500391 heartbeat IPC: 4.00001 cumulative IPC: 3.99991 (Simulation time: 0 hr 2 min 46 sec) 
Heartbeat CPU 0 instructions: 80000000 cycles: 20000391 heartbeat IPC: 4 cumulative IPC: 3.99992 (Simulation time: 0 hr 3 min 10 sec) 
Heartbeat CPU 0 instructions: 90000000 cycles: 22500391 heartbeat IPC: 4 cumulative IPC: 3.99993 (Simulation time: 0 hr 3 min 33 sec) 
Heartbeat CPU 0 instructions: 100000000 cycles: 25000394 heartbeat IPC: 4 cumulative IPC: 3.99994 (Simulation time: 0 hr 3 min 56 sec) 
Heartbeat CPU 0 instructions: 110000000 cycles: 27500394 heartbeat IPC: 4 cumulative IPC: 3.99994 (Simulation time: 0 hr 4 min 19 sec) 
Heartbeat CPU 0 instructions: 120000000 cycles: 30000394 heartbeat IPC: 4 cumulative IPC: 3.99995 (Simulation time: 0 hr 4 min 43 sec) 
Heartbeat CPU 0 instructions: 130000003 cycles: 32500409 heartbeat IPC: 3.99998 cumulative IPC: 3.99995 (Simulation time: 0 hr 5 min 6 sec) 
Heartbeat CPU 0 instructions: 140000003 cycles: 35000409 heartbeat IPC: 4 cumulative IPC: 3.99995 (Simulation time: 0 hr 5 min 29 sec) 
Heartbeat CPU 0 instructions: 150000000 cycles: 37500427 heartbeat IPC: 3.99997 cumulative IPC: 3.99995 (Simulation time: 0 hr 5 min 53 sec) 
Heartbeat CPU 0 instructions: 160000002 cycles: 40000441 heartbeat IPC: 3.99998 cumulative IPC: 3.99996 (Simulation time: 0 hr 6 min 16 sec) 
Heartbeat CPU 0 instructions: 170000002 cycles: 42500489 heartbeat IPC: 3.99992 cumulative IPC: 3.99995 (Simulation time: 0 hr 6 min 40 sec) 
Heartbeat CPU 0 instructions: 180000003 cycles: 45000494 heartbeat IPC: 3.99999 cumulative IPC: 3.99996 (Simulation time: 0 hr 7 min 3 sec) 
Heartbeat CPU 0 instructions: 190000003 cycles: 47500494 heartbeat IPC: 4 cumulative IPC: 3.99996 (Simulation time: 0 hr 7 min 26 sec) 
Heartbeat CPU 0 instructions: 200000001 cycles: 50000973 heartbeat IPC: 3.99923 cumulative IPC: 3.99992 (Simulation time: 0 hr 7 min 49 sec) 

Warmup complete CPU 0 instructions: 200000001 cycles: 50000973 (Simulation time: 0 hr 7 min 49 sec) 

Heartbeat CPU 0 instructions: 210000003 cycles: 59897469 heartbeat IPC: 1.01046 cumulative IPC: 1.01046 (Simulation time: 0 hr 8 min 14 sec) 
Heartbeat CPU 0 instructions: 220000001 cycles: 70561780 heartbeat IPC: 0.937707 cumulative IPC: 0.972724 (Simulation time: 0 hr 8 min 40 sec) 
Heartbeat CPU 0 instructions: 230000003 cycles: 80485308 heartbeat IPC: 1.00771 cumulative IPC: 0.984112 (Simulation time: 0 hr 9 min 5 sec) 
Heartbeat CPU 0 instructions: 240000004 cycles: 90325458 heartbeat IPC: 1.01624 cumulative IPC: 0.991953 (Simulation time: 0 hr 9 min 29 sec) 
Heartbeat CPU 0 instructions: 250000000 cycles: 100161374 heartbeat IPC: 1.01668 cumulative IPC: 0.996802 (Simulation time: 0 hr 9 min 54 sec) 
Heartbeat CPU 0 instructions: 260000001 cycles: 110204156 heartbeat IPC: 0.99574 cumulative IPC: 0.996625 (Simulation time: 0 hr 10 min 19 sec) 
Heartbeat CPU 0 instructions: 270000003 cycles: 120072159 heartbeat IPC: 1.01338 cumulative IPC: 0.998984 (Simulation time: 0 hr 10 min 44 sec) 
Heartbeat CPU 0 instructions: 280000000 cycles: 129811760 heartbeat IPC: 1.02674 cumulative IPC: 1.00237 (Simulation time: 0 hr 11 min 9 sec) 
Heartbeat CPU 0 instructions: 290000002 cycles: 139476249 heartbeat IPC: 1.03472 cumulative IPC: 1.00586 (Simulation time: 0 hr 11 min 33 sec) 
Heartbeat CPU 0 instructions: 300000003 cycles: 148887185 heartbeat IPC: 1.06259 cumulative IPC: 1.01126 (Simulation time: 0 hr 11 min 58 sec) 
Heartbeat CPU 0 instructions: 310000002 cycles: 158256236 heartbeat IPC: 1.06734 cumulative IPC: 1.01612 (Simulation time: 0 hr 12 min 22 sec) 
Heartbeat CPU 0 instructions: 320000000 cycles: 167814654 heartbeat IPC: 1.0462 cumulative IPC: 1.01856 (Simulation time: 0 hr 12 min 47 sec) 
Heartbeat CPU 0 instructions: 330000000 cycles: 177339758 heartbeat IPC: 1.04986 cumulative IPC: 1.0209 (Simulation time: 0 hr 13 min 12 sec) 
Heartbeat CPU 0 instructions: 340000002 cycles: 186714459 heartbeat IPC: 1.0667 cumulative IPC: 1.02404 (Simulation time: 0 hr 13 min 37 sec) 
Heartbeat CPU 0 instructions: 350000004 cycles: 196271488 heartbeat IPC: 1.04635 cumulative IPC: 1.0255 (Simulation time: 0 hr 14 min 3 sec) 
Heartbeat CPU 0 instructions: 360000004 cycles: 205751410 heartbeat IPC: 1.05486 cumulative IPC: 1.02728 (Simulation time: 0 hr 14 min 27 sec) 
Heartbeat CPU 0 instructions: 370000001 cycles: 215182092 heartbeat IPC: 1.06037 cumulative IPC: 1.02917 (Simulation time: 0 hr 14 min 51 sec) 
Heartbeat CPU 0 instructions: 380000000 cycles: 225130012 heartbeat IPC: 1.00524 cumulative IPC: 1.02781 (Simulation time: 0 hr 15 min 15 sec) 
Heartbeat CPU 0 instructions: 390000001 cycles: 234753047 heartbeat IPC: 1.03917 cumulative IPC: 1.02841 (Simulation time: 0 hr 15 min 39 sec) 
Heartbeat CPU 0 instructions: 400000000 cycles: 244333414 heartbeat IPC: 1.0438 cumulative IPC: 1.02916 (Simulation time: 0 hr 16 min 3 sec) 
Heartbeat CPU 0 instructions: 410000002 cycles: 253799451 heartbeat IPC: 1.05641 cumulative IPC: 1.03043 (Simulation time: 0 hr 16 min 27 sec) 
Heartbeat CPU 0 instructions: 420000001 cycles: 263334664 heartbeat IPC: 1.04874 cumulative IPC: 1.03125 (Simulation time: 0 hr 16 min 52 sec) 
Heartbeat CPU 0 instructions: 430000000 cycles: 273251956 heartbeat IPC: 1.00834 cumulative IPC: 1.03023 (Simulation time: 0 hr 17 min 16 sec) 
Heartbeat CPU 0 instructions: 440000000 cycles: 282731535 heartbeat IPC: 1.0549 cumulative IPC: 1.03124 (Simulation time: 0 hr 17 min 40 sec) 
Heartbeat CPU 0 instructions: 450000001 cycles: 292304713 heartbeat IPC: 1.04459 cumulative IPC: 1.03176 (Simulation time: 0 hr 18 min 5 sec) 
Heartbeat CPU 0 instructions: 460000000 cycles: 301721427 heartbeat IPC: 1.06194 cumulative IPC: 1.03289 (Simulation time: 0 hr 18 min 29 sec) 
Heartbeat CPU 0 instructions: 470000002 cycles: 311440185 heartbeat IPC: 1.02894 cumulative IPC: 1.03274 (Simulation time: 0 hr 18 min 53 sec) 
Heartbeat CPU 0 instructions: 480000000 cycles: 320897932 heartbeat IPC: 1.05733 cumulative IPC: 1.0336 (Simulation time: 0 hr 19 min 18 sec) 
Heartbeat CPU 0 instructions: 490000002 cycles: 330612228 heartbeat IPC: 1.02941 cumulative IPC: 1.03346 (Simulation time: 0 hr 19 min 43 sec) 
Heartbeat CPU 0 instructions: 500000003 cycles: 340318707 heartbeat IPC: 1.03024 cumulative IPC: 1.03335 (Simulation time: 0 hr 20 min 7 sec) 
Heartbeat CPU 0 instructions: 510000003 cycles: 349862933 heartbeat IPC: 1.04775 cumulative IPC: 1.03381 (Simulation time: 0 hr 20 min 31 sec) 
Heartbeat CPU 0 instructions: 520000002 cycles: 359876365 heartbeat IPC: 0.998658 cumulative IPC: 1.03267 (Simulation time: 0 hr 20 min 55 sec) 
Heartbeat CPU 0 instructions: 530000001 cycles: 369208986 heartbeat IPC: 1.07151 cumulative IPC: 1.03381 (Simulation time: 0 hr 21 min 20 sec) 
Heartbeat CPU 0 instructions: 540000003 cycles: 379176547 heartbeat IPC: 1.00325 cumulative IPC: 1.03288 (Simulation time: 0 hr 21 min 44 sec) 
Heartbeat CPU 0 instructions: 550000004 cycles: 388948113 heartbeat IPC: 1.02338 cumulative IPC: 1.03261 (Simulation time: 0 hr 22 min 8 sec) 
Heartbeat CPU 0 instructions: 560000002 cycles: 398748076 heartbeat IPC: 1.02041 cumulative IPC: 1.03227 (Simulation time: 0 hr 22 min 32 sec) 
Heartbeat CPU 0 instructions: 570000000 cycles: 408328268 heartbeat IPC: 1.04382 cumulative IPC: 1.03258 (Simulation time: 0 hr 22 min 56 sec) 
Heartbeat CPU 0 instructions: 580000002 cycles: 418240178 heartbeat IPC: 1.00889 cumulative IPC: 1.03194 (Simulation time: 0 hr 23 min 21 sec) 
Heartbeat CPU 0 instructions: 590000002 cycles: 428183520 heartbeat IPC: 1.0057 cumulative IPC: 1.03125 (Simulation time: 0 hr 23 min 45 sec) 
Heartbeat CPU 0 instructions: 600000000 cycles: 437816762 heartbeat IPC: 1.03807 cumulative IPC: 1.03142 (Simulation time: 0 hr 24 min 9 sec) 
Heartbeat CPU 0 instructions: 610000000 cycles: 447549341 heartbeat IPC: 1.02748 cumulative IPC: 1.03132 (Simulation time: 0 hr 24 min 33 sec) 
Heartbeat CPU 0 instructions: 620000001 cycles: 457078927 heartbeat IPC: 1.04936 cumulative IPC: 1.03174 (Simulation time: 0 hr 24 min 58 sec) 
Heartbeat CPU 0 instructions: 630000001 cycles: 467011031 heartbeat IPC: 1.00684 cumulative IPC: 1.03115 (Simulation time: 0 hr 25 min 22 sec) 
Heartbeat CPU 0 instructions: 640000002 cycles: 476568590 heartbeat IPC: 1.04629 cumulative IPC: 1.03149 (Simulation time: 0 hr 25 min 47 sec) 
Heartbeat CPU 0 instructions: 650000000 cycles: 486339709 heartbeat IPC: 1.02342 cumulative IPC: 1.03131 (Simulation time: 0 hr 26 min 11 sec) 
Heartbeat CPU 0 instructions: 660000000 cycles: 496252245 heartbeat IPC: 1.00882 cumulative IPC: 1.03081 (Simulation time: 0 hr 26 min 35 sec) 
Heartbeat CPU 0 instructions: 670000004 cycles: 505899496 heartbeat IPC: 1.03657 cumulative IPC: 1.03093 (Simulation time: 0 hr 27 min 0 sec) 
Heartbeat CPU 0 instructions: 680000000 cycles: 515751367 heartbeat IPC: 1.01504 cumulative IPC: 1.03059 (Simulation time: 0 hr 27 min 24 sec) 
Heartbeat CPU 0 instructions: 690000002 cycles: 525319711 heartbeat IPC: 1.04511 cumulative IPC: 1.03089 (Simulation time: 0 hr 27 min 48 sec) 
Heartbeat CPU 0 instructions: 700000000 cycles: 535105800 heartbeat IPC: 1.02186 cumulative IPC: 1.03071 (Simulation time: 0 hr 28 min 13 sec) 
Finished CPU 0 instructions: 500000000 cycles: 485104831 cumulative IPC: 1.03071 (Simulation time: 0 hr 28 min 13 sec) 

ChampSim completed all CPUs

Region of Interest Statistics

CPU 0 cumulative IPC: 1.03071 instructions: 500000000 cycles: 485104831
cpu0_L1I TOTAL     ACCESS:   42610060  HIT:   42609855  MISS:        205
cpu0_L1I LOAD      ACCESS:   42610060  HIT:   42609855  MISS:        205
cpu0_L1I RFO       ACCESS:          0  HIT:          0  MISS:          0
cpu0_L1I PREFETCH  ACCESS:          0  HIT:          0  MISS:          0
cpu0_L1I WRITEBACK ACCESS:          0  HIT:          0  MISS:          0
cpu0_L1I TRANSLATION ACCESS:          0  HIT:          0  MISS:          0
cpu0_L1I PREFETCH  REQUESTED:          0  ISSUED:          0  USEFUL:          0  USELESS:          0
cpu0_L1I AVERAGE MISS LATENCY: 129.468 cycles
cpu0_DTLB TOTAL     ACCESS:  125199547  HIT:  121800822  MISS:    3398725
cpu0_DTLB LOAD      ACCESS:   76554140  HIT:   73999498  MISS:    2554642
cpu0_DTLB RFO       ACCESS:   48645407  HIT:   47801324  MISS:     844083
cpu0_DTLB PREFETCH  ACCESS:          0  HIT:          0  MISS:          0
cpu0_DTLB WRITEBACK ACCESS:          0  HIT:          0  MISS:          0
cpu0_DTLB TRANSLATION ACCESS:          0  HIT:          0  MISS:          0
cpu0_DTLB PREFETCH  REQUESTED:          0  ISSUED:          0  USEFUL:          0  USELESS:          0
cpu0_DTLB AVERAGE MISS LATENCY: 10.683 cycles
cpu0_ITLB TOTAL     ACCESS:   56492066  HIT:   56492048  MISS:         18
cpu0_ITLB LOAD      ACCESS:   56492066  HIT:   56492048  MISS:         18
cpu0_ITLB RFO       ACCESS:          0  HIT:          0  MISS:          0
cpu0_ITLB PREFETCH  ACCESS:          0  HIT:          0  MISS:          0
cpu0_ITLB WRITEBACK ACCESS:          0  HIT:          0  MISS:          0
cpu0_ITLB TRANSLATION ACCESS:          0  HIT:          0  MISS:          0
cpu0_ITLB PREFETCH  REQUESTED:          0  ISSUED:          0  USEFUL:          0  USELESS:          0
cpu0_ITLB AVERAGE MISS LATENCY: 217 cycles
cpu0_STLB TOTAL     ACCESS:    3398743  HIT:    2766052  MISS:     632691
cpu0_STLB LOAD      ACCESS:    2554660  HIT:    2030080  MISS:     524580
cpu0_STLB RFO       ACCESS:     844083  HIT:     735972  MISS:     108111
cpu0_STLB PREFETCH  ACCESS:          0  HIT:          0  MISS:          0
cpu0_STLB WRITEBACK ACCESS:          0  HIT:          0  MISS:          0
cpu0_STLB TRANSLATION ACCESS:          0  HIT:          0  MISS:          0
cpu0_STLB PREFETCH  REQUESTED:          0  ISSUED:          0  USEFUL:          0  USELESS:          0
cpu0_STLB AVERAGE MISS LATENCY: 8.40042 cycles
cpu0_L1D TOTAL     ACCESS:  161171092  HIT:  153838095  MISS:    7332997
cpu0_L1D LOAD      ACCESS:   81752199  HIT:   75473055  MISS:    6279144
cpu0_L1D RFO       ACCESS:   78804338  HIT:   77750853  MISS:    1053485
cpu0_L1D PREFETCH  ACCESS:          0  HIT:          0  MISS:          0
cpu0_L1D WRITEBACK ACCESS:          0  HIT:          0  MISS:          0
cpu0_L1D TRANSLATION ACCESS:     614555  HIT:     614187  MISS:        368
cpu0_L1D PREFETCH  REQUESTED:          0  ISSUED:          0  USEFUL:          0  USELESS:          0
cpu0_L1D AVERAGE MISS LATENCY: 11.9832 cycles
cpu0_L2C TOTAL     ACCESS:   10528213  HIT:   10487564  MISS:      40649
cpu0_L2C LOAD      ACCESS:    6279342  HIT:    6245377  MISS:      33965
cpu0_L2C RFO       ACCESS:    1053484  HIT:    1046800  MISS:       6684
cpu0_L2C PREFETCH  ACCESS:          0  HIT:          0  MISS:          0
cpu0_L2C WRITEBACK ACCESS:    3195019  HIT:    3195019  MISS:          0
cpu0_L2C TRANSLATION ACCESS:        368  HIT:        368  MISS:          0
cpu0_L2C PREFETCH  REQUESTED:          0  ISSUED:          0  USEFUL:          0  USELESS:          0
cpu0_L2C AVERAGE MISS LATENCY: 162.206 cycles
LLC TOTAL     ACCESS:      68806  HIT:      11319  MISS:      57487
LLC LOAD      ACCESS:      33965  HIT:       6456  MISS:      27509
LLC RFO       ACCESS:       6684  HIT:        673  MISS:       6011
LLC PREFETCH  ACCESS:      27681  HIT:       4107  MISS:      23574
LLC WRITEBACK ACCESS:        476  HIT:         83  MISS:        393
LLC TRANSLATION ACCESS:          0  HIT:          0  MISS:          0
LLC PREFETCH  REQUESTED:      33965  ISSUED:      33965  USEFUL:       7622  USELESS:      15449
LLC AVERAGE MISS LATENCY: 173.629 cycles

DRAM Statistics
 CHANNEL 0
 RQ ROW_BUFFER_HIT:       6156  ROW_BUFFER_MISS:      50938
 DBUS AVG_CONGESTED_CYCLE:    3.83086
 WQ ROW_BUFFER_HIT:         43  ROW_BUFFER_MISS:        204  FULL:          0


CPU 0 Branch Prediction Accuracy: 93.2032% MPKI: 16.4199 Average ROB Occupancy at Mispredict: 31.1908
Branch type MPKI
BRANCH_DIRECT_JUMP: 7.4e-05
BRANCH_INDIRECT: 0.11427
BRANCH_CONDITIONAL: 15.7048
BRANCH_DIRECT_CALL: 6.4e-05
BRANCH_INDIRECT_CALL: 0.118348
BRANCH_RETURN: 0.482338

