/home/caslab/workspace/sim/ChampSim/bin/champsim --warmup_instructions 200000000 --simulation_instructions 500000000/ /home/caslab/workspace/sim/traces/speccpu_by_champsim473.astar-359B.champsimtrace.xz
start simulation for 473.astar-359B.champsimtrace.xz

*** ChampSim Multicore Out-of-Order Simulator ***

Warmup Instructions: 200000000
Simulation Instructions: 500000000
Number of CPUs: 1
Off-chip DRAM Size: 4 GiB Channels: 1 Width: 64-bit Data Rate: 3200 MT/s

VirtualMemory physical capacity: 8588881920 num_ppages: 2096895
VirtualMemory page size: 4096 log2_page_size: 12

CPU 0 runs /home/caslab/workspace/sim/traces/speccpu_by_champsim/473.astar-359B.champsimtrace.xz
CPU 0 Bimodal branch predictor
Basic BTB sets: 1024 ways: 8 indirect buffer size: 4096 RAS size: 64
LLC next line prefetcher
WARNING: The extended signature CACHE::prefetch_line(ip, base_addr, pf_addr, fill_this_level, prefetch_metadata) is deprecated.
WARNING: Use CACHE::prefetch_line(pf_addr, fill_this_level, prefetch_metadata) instead.
Heartbeat CPU 0 instructions: 10000002 cycles: 3578196 heartbeat IPC: 2.7947 cumulative IPC: 2.7947 (Simulation time: 0 hr 0 min 34 sec) 
Heartbeat CPU 0 instructions: 20000003 cycles: 7206118 heartbeat IPC: 2.7564 cumulative IPC: 2.77542 (Simulation time: 0 hr 1 min 9 sec) 
Heartbeat CPU 0 instructions: 30000003 cycles: 10772558 heartbeat IPC: 2.80392 cumulative IPC: 2.78485 (Simulation time: 0 hr 1 min 42 sec) 
Heartbeat CPU 0 instructions: 40000001 cycles: 14345339 heartbeat IPC: 2.79894 cumulative IPC: 2.78836 (Simulation time: 0 hr 2 min 16 sec) 
Heartbeat CPU 0 instructions: 50000002 cycles: 17943872 heartbeat IPC: 2.77891 cumulative IPC: 2.78647 (Simulation time: 0 hr 2 min 50 sec) 
Heartbeat CPU 0 instructions: 60000004 cycles: 21510128 heartbeat IPC: 2.80406 cumulative IPC: 2.78938 (Simulation time: 0 hr 3 min 23 sec) 
Heartbeat CPU 0 instructions: 70000000 cycles: 25073411 heartbeat IPC: 2.8064 cumulative IPC: 2.7918 (Simulation time: 0 hr 3 min 57 sec) 
Heartbeat CPU 0 instructions: 80000000 cycles: 28652524 heartbeat IPC: 2.79399 cumulative IPC: 2.79208 (Simulation time: 0 hr 4 min 31 sec) 
Heartbeat CPU 0 instructions: 90000004 cycles: 32222726 heartbeat IPC: 2.80096 cumulative IPC: 2.79306 (Simulation time: 0 hr 5 min 4 sec) 
Heartbeat CPU 0 instructions: 100000002 cycles: 35826994 heartbeat IPC: 2.77449 cumulative IPC: 2.79119 (Simulation time: 0 hr 5 min 39 sec) 
Heartbeat CPU 0 instructions: 110000000 cycles: 39459202 heartbeat IPC: 2.75315 cumulative IPC: 2.78769 (Simulation time: 0 hr 6 min 13 sec) 
Heartbeat CPU 0 instructions: 120000003 cycles: 43070748 heartbeat IPC: 2.7689 cumulative IPC: 2.78611 (Simulation time: 0 hr 6 min 47 sec) 
Heartbeat CPU 0 instructions: 130000000 cycles: 46710975 heartbeat IPC: 2.74708 cumulative IPC: 2.78307 (Simulation time: 0 hr 7 min 21 sec) 
Heartbeat CPU 0 instructions: 140000004 cycles: 50280639 heartbeat IPC: 2.80139 cumulative IPC: 2.78437 (Simulation time: 0 hr 7 min 55 sec) 
Heartbeat CPU 0 instructions: 150000001 cycles: 53846607 heartbeat IPC: 2.80429 cumulative IPC: 2.78569 (Simulation time: 0 hr 8 min 28 sec) 
Heartbeat CPU 0 instructions: 160000000 cycles: 57477853 heartbeat IPC: 2.75388 cumulative IPC: 2.78368 (Simulation time: 0 hr 9 min 3 sec) 
Heartbeat CPU 0 instructions: 170000000 cycles: 61069951 heartbeat IPC: 2.78389 cumulative IPC: 2.78369 (Simulation time: 0 hr 9 min 37 sec) 
Heartbeat CPU 0 instructions: 180000001 cycles: 64651235 heartbeat IPC: 2.79229 cumulative IPC: 2.78417 (Simulation time: 0 hr 10 min 11 sec) 
Heartbeat CPU 0 instructions: 190000000 cycles: 68194997 heartbeat IPC: 2.82186 cumulative IPC: 2.78613 (Simulation time: 0 hr 10 min 45 sec) 
Heartbeat CPU 0 instructions: 200000001 cycles: 71832450 heartbeat IPC: 2.74918 cumulative IPC: 2.78426 (Simulation time: 0 hr 11 min 19 sec) 

Warmup complete CPU 0 instructions: 200000001 cycles: 71832450 (Simulation time: 0 hr 11 min 19 sec) 

Heartbeat CPU 0 instructions: 210000000 cycles: 87916778 heartbeat IPC: 0.621723 cumulative IPC: 0.621723 (Simulation time: 0 hr 11 min 49 sec) 
Heartbeat CPU 0 instructions: 220000000 cycles: 103257184 heartbeat IPC: 0.651873 cumulative IPC: 0.636441 (Simulation time: 0 hr 12 min 20 sec) 
Heartbeat CPU 0 instructions: 230000003 cycles: 120034707 heartbeat IPC: 0.596036 cumulative IPC: 0.622378 (Simulation time: 0 hr 12 min 49 sec) 
Heartbeat CPU 0 instructions: 240000000 cycles: 136409354 heartbeat IPC: 0.6107 cumulative IPC: 0.619416 (Simulation time: 0 hr 13 min 18 sec) 
Heartbeat CPU 0 instructions: 250000003 cycles: 152429428 heartbeat IPC: 0.624217 cumulative IPC: 0.620371 (Simulation time: 0 hr 13 min 48 sec) 
Heartbeat CPU 0 instructions: 260000001 cycles: 168061147 heartbeat IPC: 0.639725 cumulative IPC: 0.623515 (Simulation time: 0 hr 14 min 18 sec) 
Heartbeat CPU 0 instructions: 270000001 cycles: 183313929 heartbeat IPC: 0.655618 cumulative IPC: 0.627907 (Simulation time: 0 hr 14 min 49 sec) 
Heartbeat CPU 0 instructions: 280000001 cycles: 199801967 heartbeat IPC: 0.6065 cumulative IPC: 0.625149 (Simulation time: 0 hr 15 min 18 sec) 
Heartbeat CPU 0 instructions: 290000004 cycles: 215181411 heartbeat IPC: 0.650219 cumulative IPC: 0.627839 (Simulation time: 0 hr 15 min 49 sec) 
Heartbeat CPU 0 instructions: 300000003 cycles: 231937138 heartbeat IPC: 0.596811 cumulative IPC: 0.624591 (Simulation time: 0 hr 16 min 18 sec) 
Heartbeat CPU 0 instructions: 310000003 cycles: 247939767 heartbeat IPC: 0.624897 cumulative IPC: 0.624619 (Simulation time: 0 hr 16 min 48 sec) 
Heartbeat CPU 0 instructions: 320000000 cycles: 264276228 heartbeat IPC: 0.612127 cumulative IPC: 0.623559 (Simulation time: 0 hr 17 min 18 sec) 
Heartbeat CPU 0 instructions: 330000000 cycles: 280651529 heartbeat IPC: 0.610676 cumulative IPC: 0.622548 (Simulation time: 0 hr 17 min 48 sec) 
Heartbeat CPU 0 instructions: 340000001 cycles: 297773335 heartbeat IPC: 0.584051 cumulative IPC: 0.619631 (Simulation time: 0 hr 18 min 17 sec) 
Heartbeat CPU 0 instructions: 350000003 cycles: 313304766 heartbeat IPC: 0.643856 cumulative IPC: 0.621189 (Simulation time: 0 hr 18 min 48 sec) 
Heartbeat CPU 0 instructions: 360000000 cycles: 329428322 heartbeat IPC: 0.62021 cumulative IPC: 0.621128 (Simulation time: 0 hr 19 min 19 sec) 
Heartbeat CPU 0 instructions: 370000002 cycles: 346248178 heartbeat IPC: 0.594536 cumulative IPC: 0.619498 (Simulation time: 0 hr 19 min 49 sec) 
Heartbeat CPU 0 instructions: 380000002 cycles: 362912212 heartbeat IPC: 0.600095 cumulative IPC: 0.618387 (Simulation time: 0 hr 20 min 20 sec) 
Heartbeat CPU 0 instructions: 390000001 cycles: 378143885 heartbeat IPC: 0.656527 cumulative IPC: 0.620284 (Simulation time: 0 hr 20 min 50 sec) 
Heartbeat CPU 0 instructions: 400000000 cycles: 395379912 heartbeat IPC: 0.58018 cumulative IPC: 0.618147 (Simulation time: 0 hr 21 min 20 sec) 
Heartbeat CPU 0 instructions: 410000000 cycles: 411344609 heartbeat IPC: 0.626382 cumulative IPC: 0.618535 (Simulation time: 0 hr 21 min 50 sec) 
Heartbeat CPU 0 instructions: 420000000 cycles: 427488765 heartbeat IPC: 0.619419 cumulative IPC: 0.618575 (Simulation time: 0 hr 22 min 20 sec) 
Heartbeat CPU 0 instructions: 430000000 cycles: 445247355 heartbeat IPC: 0.563108 cumulative IPC: 0.615937 (Simulation time: 0 hr 22 min 49 sec) 
Heartbeat CPU 0 instructions: 440000002 cycles: 462173899 heartbeat IPC: 0.590788 cumulative IPC: 0.614846 (Simulation time: 0 hr 23 min 18 sec) 
Heartbeat CPU 0 instructions: 450000001 cycles: 477772409 heartbeat IPC: 0.641087 cumulative IPC: 0.615855 (Simulation time: 0 hr 23 min 51 sec) 
Heartbeat CPU 0 instructions: 460000003 cycles: 492792479 heartbeat IPC: 0.665776 cumulative IPC: 0.617636 (Simulation time: 0 hr 24 min 22 sec) 
Heartbeat CPU 0 instructions: 470000003 cycles: 509002882 heartbeat IPC: 0.616888 cumulative IPC: 0.617608 (Simulation time: 0 hr 24 min 52 sec) 
Heartbeat CPU 0 instructions: 480000000 cycles: 525638193 heartbeat IPC: 0.601131 cumulative IPC: 0.617004 (Simulation time: 0 hr 25 min 22 sec) 
Heartbeat CPU 0 instructions: 490000002 cycles: 541914554 heartbeat IPC: 0.614388 cumulative IPC: 0.616913 (Simulation time: 0 hr 25 min 52 sec) 
Heartbeat CPU 0 instructions: 500000000 cycles: 557622901 heartbeat IPC: 0.636604 cumulative IPC: 0.61755 (Simulation time: 0 hr 26 min 22 sec) 
Heartbeat CPU 0 instructions: 510000000 cycles: 573905608 heartbeat IPC: 0.614148 cumulative IPC: 0.61744 (Simulation time: 0 hr 26 min 52 sec) 
Heartbeat CPU 0 instructions: 520000000 cycles: 589712966 heartbeat IPC: 0.632617 cumulative IPC: 0.617903 (Simulation time: 0 hr 27 min 22 sec) 
Heartbeat CPU 0 instructions: 530000001 cycles: 606113954 heartbeat IPC: 0.609719 cumulative IPC: 0.617652 (Simulation time: 0 hr 27 min 52 sec) 
Heartbeat CPU 0 instructions: 540000003 cycles: 620698986 heartbeat IPC: 0.685635 cumulative IPC: 0.619458 (Simulation time: 0 hr 28 min 23 sec) 
Heartbeat CPU 0 instructions: 550000000 cycles: 637537560 heartbeat IPC: 0.593874 cumulative IPC: 0.618697 (Simulation time: 0 hr 28 min 53 sec) 
Heartbeat CPU 0 instructions: 560000000 cycles: 654043562 heartbeat IPC: 0.60584 cumulative IPC: 0.618332 (Simulation time: 0 hr 29 min 22 sec) 
Heartbeat CPU 0 instructions: 570000000 cycles: 668037780 heartbeat IPC: 0.714581 cumulative IPC: 0.620592 (Simulation time: 0 hr 29 min 54 sec) 
Heartbeat CPU 0 instructions: 580000002 cycles: 684709341 heartbeat IPC: 0.599824 cumulative IPC: 0.620027 (Simulation time: 0 hr 30 min 23 sec) 
Heartbeat CPU 0 instructions: 590000000 cycles: 700532957 heartbeat IPC: 0.631967 cumulative IPC: 0.620327 (Simulation time: 0 hr 30 min 53 sec) 
Heartbeat CPU 0 instructions: 600000003 cycles: 717423802 heartbeat IPC: 0.592037 cumulative IPC: 0.619587 (Simulation time: 0 hr 31 min 24 sec) 
Heartbeat CPU 0 instructions: 610000000 cycles: 734496894 heartbeat IPC: 0.585717 cumulative IPC: 0.618714 (Simulation time: 0 hr 31 min 53 sec) 
Heartbeat CPU 0 instructions: 620000000 cycles: 749193952 heartbeat IPC: 0.680408 cumulative IPC: 0.620053 (Simulation time: 0 hr 32 min 24 sec) 
Heartbeat CPU 0 instructions: 630000001 cycles: 766082691 heartbeat IPC: 0.592111 cumulative IPC: 0.619373 (Simulation time: 0 hr 32 min 54 sec) 
Heartbeat CPU 0 instructions: 640000000 cycles: 782807127 heartbeat IPC: 0.597927 cumulative IPC: 0.618869 (Simulation time: 0 hr 33 min 23 sec) 
Heartbeat CPU 0 instructions: 650000003 cycles: 799273629 heartbeat IPC: 0.607294 cumulative IPC: 0.618607 (Simulation time: 0 hr 33 min 53 sec) 
Heartbeat CPU 0 instructions: 660000004 cycles: 814258481 heartbeat IPC: 0.667341 cumulative IPC: 0.61959 (Simulation time: 0 hr 34 min 24 sec) 
Heartbeat CPU 0 instructions: 670000002 cycles: 829609259 heartbeat IPC: 0.651433 cumulative IPC: 0.620235 (Simulation time: 0 hr 34 min 54 sec) 
Heartbeat CPU 0 instructions: 680000000 cycles: 845451789 heartbeat IPC: 0.631212 cumulative IPC: 0.62046 (Simulation time: 0 hr 35 min 25 sec) 
Heartbeat CPU 0 instructions: 690000001 cycles: 861432755 heartbeat IPC: 0.625744 cumulative IPC: 0.620567 (Simulation time: 0 hr 35 min 56 sec) 
Heartbeat CPU 0 instructions: 700000000 cycles: 877946912 heartbeat IPC: 0.605541 cumulative IPC: 0.620259 (Simulation time: 0 hr 36 min 25 sec) 
Finished CPU 0 instructions: 500000004 cycles: 806114463 cumulative IPC: 0.620259 (Simulation time: 0 hr 36 min 25 sec) 

ChampSim completed all CPUs

Region of Interest Statistics

CPU 0 cumulative IPC: 0.620259 instructions: 500000004 cycles: 806114463
cpu0_L1I TOTAL     ACCESS:        698  HIT:        696  MISS:          2
cpu0_L1I LOAD      ACCESS:        698  HIT:        696  MISS:          2
cpu0_L1I RFO       ACCESS:          0  HIT:          0  MISS:          0
cpu0_L1I PREFETCH  ACCESS:          0  HIT:          0  MISS:          0
cpu0_L1I WRITEBACK ACCESS:          0  HIT:          0  MISS:          0
cpu0_L1I TRANSLATION ACCESS:          0  HIT:          0  MISS:          0
cpu0_L1I PREFETCH  REQUESTED:          0  ISSUED:          0  USEFUL:          0  USELESS:          0
cpu0_L1I AVERAGE MISS LATENCY: 113 cycles
cpu0_DTLB TOTAL     ACCESS:  160531568  HIT:  144172392  MISS:   16359176
cpu0_DTLB LOAD      ACCESS:  118424500  HIT:  107638739  MISS:   10785761
cpu0_DTLB RFO       ACCESS:   42107068  HIT:   36533653  MISS:    5573415
cpu0_DTLB PREFETCH  ACCESS:          0  HIT:          0  MISS:          0
cpu0_DTLB WRITEBACK ACCESS:          0  HIT:          0  MISS:          0
cpu0_DTLB TRANSLATION ACCESS:          0  HIT:          0  MISS:          0
cpu0_DTLB PREFETCH  REQUESTED:          0  ISSUED:          0  USEFUL:          0  USELESS:          0
cpu0_DTLB AVERAGE MISS LATENCY: 12.0976 cycles
cpu0_ITLB TOTAL     ACCESS:   56917326  HIT:   56917326  MISS:          0
cpu0_ITLB LOAD      ACCESS:   56917326  HIT:   56917326  MISS:          0
cpu0_ITLB RFO       ACCESS:          0  HIT:          0  MISS:          0
cpu0_ITLB PREFETCH  ACCESS:          0  HIT:          0  MISS:          0
cpu0_ITLB WRITEBACK ACCESS:          0  HIT:          0  MISS:          0
cpu0_ITLB TRANSLATION ACCESS:          0  HIT:          0  MISS:          0
cpu0_ITLB PREFETCH  REQUESTED:          0  ISSUED:          0  USEFUL:          0  USELESS:          0
cpu0_ITLB AVERAGE MISS LATENCY: -nan cycles
cpu0_STLB TOTAL     ACCESS:   16359177  HIT:   10242182  MISS:    6116995
cpu0_STLB LOAD      ACCESS:   10785761  HIT:    8903696  MISS:    1882065
cpu0_STLB RFO       ACCESS:    5573416  HIT:    1338486  MISS:    4234930
cpu0_STLB PREFETCH  ACCESS:          0  HIT:          0  MISS:          0
cpu0_STLB WRITEBACK ACCESS:          0  HIT:          0  MISS:          0
cpu0_STLB TRANSLATION ACCESS:          0  HIT:          0  MISS:          0
cpu0_STLB PREFETCH  REQUESTED:          0  ISSUED:          0  USEFUL:          0  USELESS:          0
cpu0_STLB AVERAGE MISS LATENCY: 7.93595 cycles
cpu0_L1D TOTAL     ACCESS:  187875678  HIT:  170239360  MISS:   17636318
cpu0_L1D LOAD      ACCESS:  119835705  HIT:  110485901  MISS:    9349804
cpu0_L1D RFO       ACCESS:   63519554  HIT:   55233555  MISS:    8285999
cpu0_L1D PREFETCH  ACCESS:          0  HIT:          0  MISS:          0
cpu0_L1D WRITEBACK ACCESS:          0  HIT:          0  MISS:          0
cpu0_L1D TRANSLATION ACCESS:    4520419  HIT:    4519904  MISS:        515
cpu0_L1D PREFETCH  REQUESTED:          0  ISSUED:          0  USEFUL:          0  USELESS:          0
cpu0_L1D AVERAGE MISS LATENCY: 11.0594 cycles
cpu0_L2C TOTAL     ACCESS:   29113236  HIT:   29110147  MISS:       3089
cpu0_L2C LOAD      ACCESS:    9349806  HIT:    9347747  MISS:       2059
cpu0_L2C RFO       ACCESS:    8285893  HIT:    8284863  MISS:       1030
cpu0_L2C PREFETCH  ACCESS:          0  HIT:          0  MISS:          0
cpu0_L2C WRITEBACK ACCESS:   11477022  HIT:   11477022  MISS:          0
cpu0_L2C TRANSLATION ACCESS:        515  HIT:        515  MISS:          0
cpu0_L2C PREFETCH  REQUESTED:          0  ISSUED:          0  USEFUL:          0  USELESS:          0
cpu0_L2C AVERAGE MISS LATENCY: 177.625 cycles
LLC TOTAL     ACCESS:       5147  HIT:         81  MISS:       5066
LLC LOAD      ACCESS:       2059  HIT:         40  MISS:       2019
LLC RFO       ACCESS:       1030  HIT:         39  MISS:        991
LLC PREFETCH  ACCESS:       2058  HIT:          2  MISS:       2056
LLC WRITEBACK ACCESS:          0  HIT:          0  MISS:          0
LLC TRANSLATION ACCESS:          0  HIT:          0  MISS:          0
LLC PREFETCH  REQUESTED:       2059  ISSUED:       2059  USEFUL:         80  USELESS:       1208
LLC AVERAGE MISS LATENCY: 164.87 cycles

DRAM Statistics
 CHANNEL 0
 RQ ROW_BUFFER_HIT:        215  ROW_BUFFER_MISS:       4851
 DBUS AVG_CONGESTED_CYCLE:    3.77451
 WQ ROW_BUFFER_HIT:          0  ROW_BUFFER_MISS:          0  FULL:          0


CPU 0 Branch Prediction Accuracy: 89.3631% MPKI: 20.7648 Average ROB Occupancy at Mispredict: 27.4761
Branch type MPKI
BRANCH_DIRECT_JUMP: 6e-06
BRANCH_INDIRECT: 0
BRANCH_CONDITIONAL: 20.7647
BRANCH_DIRECT_CALL: 0
BRANCH_INDIRECT_CALL: 4e-05
BRANCH_RETURN: 0

