/home/caslab/workspace/sim/ChampSim/bin/champsim --warmup_instructions 200000000 --simulation_instructions 500000000/ /home/caslab/workspace/sim/traces/speccpu_by_champsim481.wrf-1254B.champsimtrace.xz
start simulation for 481.wrf-1254B.champsimtrace.xz

*** ChampSim Multicore Out-of-Order Simulator ***

Warmup Instructions: 200000000
Simulation Instructions: 500000000
Number of CPUs: 1
Off-chip DRAM Size: 4 GiB Channels: 1 Width: 64-bit Data Rate: 3200 MT/s

VirtualMemory physical capacity: 8588881920 num_ppages: 2096895
VirtualMemory page size: 4096 log2_page_size: 12

CPU 0 runs /home/caslab/workspace/sim/traces/speccpu_by_champsim/481.wrf-1254B.champsimtrace.xz
CPU 0 Bimodal branch predictor
Basic BTB sets: 1024 ways: 8 indirect buffer size: 4096 RAS size: 64
LLC next line prefetcher
WARNING: The extended signature CACHE::prefetch_line(ip, base_addr, pf_addr, fill_this_level, prefetch_metadata) is deprecated.
WARNING: Use CACHE::prefetch_line(pf_addr, fill_this_level, prefetch_metadata) instead.
Heartbeat CPU 0 instructions: 10000001 cycles: 2596441 heartbeat IPC: 3.85143 cumulative IPC: 3.85143 (Simulation time: 0 hr 0 min 24 sec) 
Heartbeat CPU 0 instructions: 20000001 cycles: 5324589 heartbeat IPC: 3.66549 cumulative IPC: 3.75616 (Simulation time: 0 hr 0 min 45 sec) 
Heartbeat CPU 0 instructions: 30000001 cycles: 8157890 heartbeat IPC: 3.52945 cumulative IPC: 3.67742 (Simulation time: 0 hr 1 min 8 sec) 
Heartbeat CPU 0 instructions: 40000001 cycles: 10994589 heartbeat IPC: 3.52522 cumulative IPC: 3.63815 (Simulation time: 0 hr 1 min 31 sec) 
Heartbeat CPU 0 instructions: 50000001 cycles: 13997904 heartbeat IPC: 3.32965 cumulative IPC: 3.57196 (Simulation time: 0 hr 1 min 56 sec) 
Heartbeat CPU 0 instructions: 60000001 cycles: 16990734 heartbeat IPC: 3.34132 cumulative IPC: 3.53134 (Simulation time: 0 hr 2 min 20 sec) 
Heartbeat CPU 0 instructions: 70000001 cycles: 19928703 heartbeat IPC: 3.40371 cumulative IPC: 3.51252 (Simulation time: 0 hr 2 min 44 sec) 
Heartbeat CPU 0 instructions: 80000001 cycles: 22769464 heartbeat IPC: 3.52018 cumulative IPC: 3.51348 (Simulation time: 0 hr 3 min 6 sec) 
Heartbeat CPU 0 instructions: 90000003 cycles: 25452526 heartbeat IPC: 3.72709 cumulative IPC: 3.536 (Simulation time: 0 hr 3 min 25 sec) 
Heartbeat CPU 0 instructions: 100000003 cycles: 28040314 heartbeat IPC: 3.8643 cumulative IPC: 3.56629 (Simulation time: 0 hr 3 min 49 sec) 
Heartbeat CPU 0 instructions: 110000004 cycles: 30760669 heartbeat IPC: 3.67599 cumulative IPC: 3.576 (Simulation time: 0 hr 4 min 10 sec) 
Heartbeat CPU 0 instructions: 120000002 cycles: 33589050 heartbeat IPC: 3.53559 cumulative IPC: 3.57259 (Simulation time: 0 hr 4 min 33 sec) 
Heartbeat CPU 0 instructions: 130000001 cycles: 36422351 heartbeat IPC: 3.52945 cumulative IPC: 3.56924 (Simulation time: 0 hr 4 min 55 sec) 
Heartbeat CPU 0 instructions: 140000002 cycles: 39418876 heartbeat IPC: 3.3372 cumulative IPC: 3.5516 (Simulation time: 0 hr 5 min 20 sec) 
Heartbeat CPU 0 instructions: 150000002 cycles: 42422186 heartbeat IPC: 3.32966 cumulative IPC: 3.53589 (Simulation time: 0 hr 5 min 45 sec) 
Heartbeat CPU 0 instructions: 160000003 cycles: 45361190 heartbeat IPC: 3.40251 cumulative IPC: 3.52724 (Simulation time: 0 hr 6 min 8 sec) 
Heartbeat CPU 0 instructions: 170000003 cycles: 48205736 heartbeat IPC: 3.5155 cumulative IPC: 3.52655 (Simulation time: 0 hr 6 min 30 sec) 
Heartbeat CPU 0 instructions: 180000001 cycles: 50904917 heartbeat IPC: 3.70483 cumulative IPC: 3.536 (Simulation time: 0 hr 6 min 50 sec) 
Heartbeat CPU 0 instructions: 190000002 cycles: 53484251 heartbeat IPC: 3.87697 cumulative IPC: 3.55245 (Simulation time: 0 hr 7 min 13 sec) 
Heartbeat CPU 0 instructions: 200000000 cycles: 56193960 heartbeat IPC: 3.69043 cumulative IPC: 3.5591 (Simulation time: 0 hr 7 min 34 sec) 

Warmup complete CPU 0 instructions: 200000004 cycles: 56193961 (Simulation time: 0 hr 7 min 34 sec) 

Heartbeat CPU 0 instructions: 210000000 cycles: 59147420 heartbeat IPC: 3.38586 cumulative IPC: 3.38586 (Simulation time: 0 hr 7 min 59 sec) 
Heartbeat CPU 0 instructions: 220000000 cycles: 62100683 heartbeat IPC: 3.38609 cumulative IPC: 3.38597 (Simulation time: 0 hr 8 min 25 sec) 
Heartbeat CPU 0 instructions: 230000003 cycles: 65192658 heartbeat IPC: 3.23418 cumulative IPC: 3.33382 (Simulation time: 0 hr 8 min 50 sec) 
Heartbeat CPU 0 instructions: 240000003 cycles: 68287056 heartbeat IPC: 3.23165 cumulative IPC: 3.30767 (Simulation time: 0 hr 9 min 14 sec) 
Heartbeat CPU 0 instructions: 250000000 cycles: 71335002 heartbeat IPC: 3.2809 cumulative IPC: 3.30228 (Simulation time: 0 hr 9 min 38 sec) 
Heartbeat CPU 0 instructions: 260000001 cycles: 74250989 heartbeat IPC: 3.42937 cumulative IPC: 3.32281 (Simulation time: 0 hr 10 min 0 sec) 
Heartbeat CPU 0 instructions: 270000000 cycles: 77151677 heartbeat IPC: 3.44746 cumulative IPC: 3.34006 (Simulation time: 0 hr 10 min 19 sec) 
Heartbeat CPU 0 instructions: 280000004 cycles: 80500643 heartbeat IPC: 2.986 cumulative IPC: 3.29128 (Simulation time: 0 hr 10 min 48 sec) 
Heartbeat CPU 0 instructions: 290000001 cycles: 83575774 heartbeat IPC: 3.25189 cumulative IPC: 3.28685 (Simulation time: 0 hr 11 min 13 sec) 
Heartbeat CPU 0 instructions: 300000003 cycles: 86525021 heartbeat IPC: 3.3907 cumulative IPC: 3.29695 (Simulation time: 0 hr 11 min 39 sec) 
Heartbeat CPU 0 instructions: 310000000 cycles: 89476983 heartbeat IPC: 3.38758 cumulative IPC: 3.30499 (Simulation time: 0 hr 12 min 4 sec) 
Heartbeat CPU 0 instructions: 320000001 cycles: 92559254 heartbeat IPC: 3.24436 cumulative IPC: 3.29985 (Simulation time: 0 hr 12 min 29 sec) 
Heartbeat CPU 0 instructions: 330000004 cycles: 95664274 heartbeat IPC: 3.22059 cumulative IPC: 3.29361 (Simulation time: 0 hr 12 min 54 sec) 
Heartbeat CPU 0 instructions: 340000000 cycles: 98717616 heartbeat IPC: 3.2751 cumulative IPC: 3.29229 (Simulation time: 0 hr 13 min 18 sec) 
Heartbeat CPU 0 instructions: 350000001 cycles: 101632192 heartbeat IPC: 3.43103 cumulative IPC: 3.30118 (Simulation time: 0 hr 13 min 41 sec) 
Heartbeat CPU 0 instructions: 360000001 cycles: 104543002 heartbeat IPC: 3.43547 cumulative IPC: 3.30927 (Simulation time: 0 hr 14 min 1 sec) 
Heartbeat CPU 0 instructions: 370000004 cycles: 107909110 heartbeat IPC: 2.97079 cumulative IPC: 3.28724 (Simulation time: 0 hr 14 min 28 sec) 
Heartbeat CPU 0 instructions: 380000003 cycles: 115191469 heartbeat IPC: 1.37318 cumulative IPC: 3.05098 (Simulation time: 0 hr 15 min 8 sec) 
Heartbeat CPU 0 instructions: 390000000 cycles: 124554563 heartbeat IPC: 1.06802 cumulative IPC: 2.77938 (Simulation time: 0 hr 15 min 54 sec) 
Heartbeat CPU 0 instructions: 400000002 cycles: 133919833 heartbeat IPC: 1.06778 cumulative IPC: 2.57315 (Simulation time: 0 hr 16 min 40 sec) 
Heartbeat CPU 0 instructions: 410000000 cycles: 143270297 heartbeat IPC: 1.06947 cumulative IPC: 2.41168 (Simulation time: 0 hr 17 min 26 sec) 
Heartbeat CPU 0 instructions: 420000002 cycles: 152635635 heartbeat IPC: 1.06777 cumulative IPC: 2.28117 (Simulation time: 0 hr 18 min 12 sec) 
Heartbeat CPU 0 instructions: 430000000 cycles: 161998993 heartbeat IPC: 1.06799 cumulative IPC: 2.17381 (Simulation time: 0 hr 18 min 58 sec) 
Heartbeat CPU 0 instructions: 440000002 cycles: 171349670 heartbeat IPC: 1.06944 cumulative IPC: 2.08413 (Simulation time: 0 hr 19 min 44 sec) 
Heartbeat CPU 0 instructions: 450000000 cycles: 180717214 heartbeat IPC: 1.06752 cumulative IPC: 2.00766 (Simulation time: 0 hr 20 min 30 sec) 
Heartbeat CPU 0 instructions: 460000001 cycles: 190077998 heartbeat IPC: 1.06829 cumulative IPC: 1.94198 (Simulation time: 0 hr 21 min 17 sec) 
Heartbeat CPU 0 instructions: 470000002 cycles: 199429850 heartbeat IPC: 1.06931 cumulative IPC: 1.885 (Simulation time: 0 hr 22 min 3 sec) 
Heartbeat CPU 0 instructions: 480000002 cycles: 208800847 heartbeat IPC: 1.06712 cumulative IPC: 1.83478 (Simulation time: 0 hr 22 min 50 sec) 
Heartbeat CPU 0 instructions: 490000002 cycles: 218157892 heartbeat IPC: 1.06871 cumulative IPC: 1.79052 (Simulation time: 0 hr 23 min 36 sec) 
Heartbeat CPU 0 instructions: 500000002 cycles: 227510134 heartbeat IPC: 1.06926 cumulative IPC: 1.75115 (Simulation time: 0 hr 24 min 22 sec) 
Heartbeat CPU 0 instructions: 510000000 cycles: 236883184 heartbeat IPC: 1.06689 cumulative IPC: 1.71565 (Simulation time: 0 hr 25 min 8 sec) 
Heartbeat CPU 0 instructions: 520000004 cycles: 246237001 heartbeat IPC: 1.06908 cumulative IPC: 1.68383 (Simulation time: 0 hr 25 min 54 sec) 
Heartbeat CPU 0 instructions: 530000002 cycles: 255590170 heartbeat IPC: 1.06916 cumulative IPC: 1.655 (Simulation time: 0 hr 26 min 40 sec) 
Heartbeat CPU 0 instructions: 540000000 cycles: 264964516 heartbeat IPC: 1.06674 cumulative IPC: 1.62858 (Simulation time: 0 hr 27 min 26 sec) 
Heartbeat CPU 0 instructions: 550000004 cycles: 271674468 heartbeat IPC: 1.49032 cumulative IPC: 1.62428 (Simulation time: 0 hr 28 min 4 sec) 
Heartbeat CPU 0 instructions: 560000002 cycles: 279937029 heartbeat IPC: 1.21028 cumulative IPC: 1.60899 (Simulation time: 0 hr 28 min 48 sec) 
Heartbeat CPU 0 instructions: 570000001 cycles: 288588220 heartbeat IPC: 1.15591 cumulative IPC: 1.59212 (Simulation time: 0 hr 29 min 34 sec) 
Heartbeat CPU 0 instructions: 580000001 cycles: 297243401 heartbeat IPC: 1.15538 cumulative IPC: 1.57644 (Simulation time: 0 hr 30 min 19 sec) 
Heartbeat CPU 0 instructions: 590000002 cycles: 305887628 heartbeat IPC: 1.15684 cumulative IPC: 1.56191 (Simulation time: 0 hr 31 min 5 sec) 
Heartbeat CPU 0 instructions: 600000004 cycles: 314544143 heartbeat IPC: 1.1552 cumulative IPC: 1.54829 (Simulation time: 0 hr 31 min 51 sec) 
Heartbeat CPU 0 instructions: 610000004 cycles: 323192296 heartbeat IPC: 1.15632 cumulative IPC: 1.53559 (Simulation time: 0 hr 32 min 37 sec) 
Heartbeat CPU 0 instructions: 620000003 cycles: 331843159 heartbeat IPC: 1.15595 cumulative IPC: 1.52368 (Simulation time: 0 hr 33 min 23 sec) 
Heartbeat CPU 0 instructions: 630000000 cycles: 340497230 heartbeat IPC: 1.15553 cumulative IPC: 1.51247 (Simulation time: 0 hr 34 min 9 sec) 
Heartbeat CPU 0 instructions: 640000003 cycles: 349141308 heartbeat IPC: 1.15686 cumulative IPC: 1.50198 (Simulation time: 0 hr 34 min 54 sec) 
Heartbeat CPU 0 instructions: 650000001 cycles: 357796897 heartbeat IPC: 1.15532 cumulative IPC: 1.49203 (Simulation time: 0 hr 35 min 40 sec) 
Heartbeat CPU 0 instructions: 660000000 cycles: 366444881 heartbeat IPC: 1.15634 cumulative IPC: 1.48267 (Simulation time: 0 hr 36 min 26 sec) 
Heartbeat CPU 0 instructions: 670000002 cycles: 375096771 heartbeat IPC: 1.15582 cumulative IPC: 1.4738 (Simulation time: 0 hr 37 min 11 sec) 
Heartbeat CPU 0 instructions: 680000003 cycles: 383752678 heartbeat IPC: 1.15528 cumulative IPC: 1.46539 (Simulation time: 0 hr 37 min 57 sec) 
Heartbeat CPU 0 instructions: 690000001 cycles: 392398164 heartbeat IPC: 1.15667 cumulative IPC: 1.45745 (Simulation time: 0 hr 38 min 42 sec) 
Heartbeat CPU 0 instructions: 700000000 cycles: 401055686 heartbeat IPC: 1.15506 cumulative IPC: 1.44986 (Simulation time: 0 hr 39 min 28 sec) 
Finished CPU 0 instructions: 500000001 cycles: 344861727 cumulative IPC: 1.44986 (Simulation time: 0 hr 39 min 28 sec) 

ChampSim completed all CPUs

Region of Interest Statistics

CPU 0 cumulative IPC: 1.44986 instructions: 500000001 cycles: 344861727
cpu0_L1I TOTAL     ACCESS:   37472134  HIT:   37471926  MISS:        208
cpu0_L1I LOAD      ACCESS:   37472134  HIT:   37471926  MISS:        208
cpu0_L1I RFO       ACCESS:          0  HIT:          0  MISS:          0
cpu0_L1I PREFETCH  ACCESS:          0  HIT:          0  MISS:          0
cpu0_L1I WRITEBACK ACCESS:          0  HIT:          0  MISS:          0
cpu0_L1I TRANSLATION ACCESS:          0  HIT:          0  MISS:          0
cpu0_L1I PREFETCH  REQUESTED:          0  ISSUED:          0  USEFUL:          0  USELESS:          0
cpu0_L1I AVERAGE MISS LATENCY: 154.976 cycles
cpu0_DTLB TOTAL     ACCESS:   94488111  HIT:   94461116  MISS:      26995
cpu0_DTLB LOAD      ACCESS:   68091396  HIT:   68071274  MISS:      20122
cpu0_DTLB RFO       ACCESS:   26396715  HIT:   26389842  MISS:       6873
cpu0_DTLB PREFETCH  ACCESS:          0  HIT:          0  MISS:          0
cpu0_DTLB WRITEBACK ACCESS:          0  HIT:          0  MISS:          0
cpu0_DTLB TRANSLATION ACCESS:          0  HIT:          0  MISS:          0
cpu0_DTLB PREFETCH  REQUESTED:          0  ISSUED:          0  USEFUL:          0  USELESS:          0
cpu0_DTLB AVERAGE MISS LATENCY: 85.2866 cycles
cpu0_ITLB TOTAL     ACCESS:   14070433  HIT:   14070419  MISS:         14
cpu0_ITLB LOAD      ACCESS:   14070433  HIT:   14070419  MISS:         14
cpu0_ITLB RFO       ACCESS:          0  HIT:          0  MISS:          0
cpu0_ITLB PREFETCH  ACCESS:          0  HIT:          0  MISS:          0
cpu0_ITLB WRITEBACK ACCESS:          0  HIT:          0  MISS:          0
cpu0_ITLB TRANSLATION ACCESS:          0  HIT:          0  MISS:          0
cpu0_ITLB PREFETCH  REQUESTED:          0  ISSUED:          0  USEFUL:          0  USELESS:          0
cpu0_ITLB AVERAGE MISS LATENCY: 219.357 cycles
cpu0_STLB TOTAL     ACCESS:      27009  HIT:      17098  MISS:       9911
cpu0_STLB LOAD      ACCESS:      20136  HIT:      13756  MISS:       6380
cpu0_STLB RFO       ACCESS:       6873  HIT:       3342  MISS:       3531
cpu0_STLB PREFETCH  ACCESS:          0  HIT:          0  MISS:          0
cpu0_STLB WRITEBACK ACCESS:          0  HIT:          0  MISS:          0
cpu0_STLB TRANSLATION ACCESS:          0  HIT:          0  MISS:          0
cpu0_STLB PREFETCH  REQUESTED:          0  ISSUED:          0  USEFUL:          0  USELESS:          0
cpu0_STLB AVERAGE MISS LATENCY: 208.081 cycles
cpu0_L1D TOTAL     ACCESS:  104126849  HIT:  102542968  MISS:    1583881
cpu0_L1D LOAD      ACCESS:   65889974  HIT:   64692503  MISS:    1197471
cpu0_L1D RFO       ACCESS:   38226964  HIT:   37840574  MISS:     386390
cpu0_L1D PREFETCH  ACCESS:          0  HIT:          0  MISS:          0
cpu0_L1D WRITEBACK ACCESS:          0  HIT:          0  MISS:          0
cpu0_L1D TRANSLATION ACCESS:       9911  HIT:       9891  MISS:         20
cpu0_L1D PREFETCH  REQUESTED:          0  ISSUED:          0  USEFUL:          0  USELESS:          0
cpu0_L1D AVERAGE MISS LATENCY: 50.8706 cycles
cpu0_L2C TOTAL     ACCESS:    2242110  HIT:    1627191  MISS:     614919
cpu0_L2C LOAD      ACCESS:    1197679  HIT:     802577  MISS:     395102
cpu0_L2C RFO       ACCESS:     386390  HIT:     166575  MISS:     219815
cpu0_L2C PREFETCH  ACCESS:          0  HIT:          0  MISS:          0
cpu0_L2C WRITEBACK ACCESS:     658021  HIT:     658021  MISS:          0
cpu0_L2C TRANSLATION ACCESS:         20  HIT:         18  MISS:          2
cpu0_L2C PREFETCH  REQUESTED:          0  ISSUED:          0  USEFUL:          0  USELESS:          0
cpu0_L2C AVERAGE MISS LATENCY: 102.725 cycles
LLC TOTAL     ACCESS:     907036  HIT:     255078  MISS:     651958
LLC LOAD      ACCESS:     395102  HIT:     254952  MISS:     140150
LLC RFO       ACCESS:     219815  HIT:          0  MISS:     219815
LLC PREFETCH  ACCESS:     262702  HIT:        126  MISS:     262576
LLC WRITEBACK ACCESS:      29415  HIT:          0  MISS:      29415
LLC TRANSLATION ACCESS:          2  HIT:          0  MISS:          2
LLC PREFETCH  REQUESTED:     395102  ISSUED:     395102  USEFUL:     382518  USELESS:       7848
LLC AVERAGE MISS LATENCY: 116.752 cycles

DRAM Statistics
 CHANNEL 0
 RQ ROW_BUFFER_HIT:     171169  ROW_BUFFER_MISS:     451374
 DBUS AVG_CONGESTED_CYCLE:     3.6143
 WQ ROW_BUFFER_HIT:       1196  ROW_BUFFER_MISS:      24285  FULL:          0


CPU 0 Branch Prediction Accuracy: 99.6118% MPKI: 0.3518 Average ROB Occupancy at Mispredict: 237.524
Branch type MPKI
BRANCH_DIRECT_JUMP: 2e-05
BRANCH_INDIRECT: 0
BRANCH_CONDITIONAL: 0.351738
BRANCH_DIRECT_CALL: 2.2e-05
BRANCH_INDIRECT_CALL: 0
BRANCH_RETURN: 2e-05

