/home/caslab/workspace/sim/ChampSim/bin/champsim --warmup_instructions 200000000 --simulation_instructions 500000000/ /home/caslab/workspace/sim/traces/speccpu_by_champsim481.wrf-455B.champsimtrace.xz
start simulation for 481.wrf-455B.champsimtrace.xz

*** ChampSim Multicore Out-of-Order Simulator ***

Warmup Instructions: 200000000
Simulation Instructions: 500000000
Number of CPUs: 1
Off-chip DRAM Size: 4 GiB Channels: 1 Width: 64-bit Data Rate: 3200 MT/s

VirtualMemory physical capacity: 8588881920 num_ppages: 2096895
VirtualMemory page size: 4096 log2_page_size: 12

CPU 0 runs /home/caslab/workspace/sim/traces/speccpu_by_champsim/481.wrf-455B.champsimtrace.xz
CPU 0 Bimodal branch predictor
Basic BTB sets: 1024 ways: 8 indirect buffer size: 4096 RAS size: 64
LLC next line prefetcher
WARNING: The extended signature CACHE::prefetch_line(ip, base_addr, pf_addr, fill_this_level, prefetch_metadata) is deprecated.
WARNING: Use CACHE::prefetch_line(pf_addr, fill_this_level, prefetch_metadata) instead.
Heartbeat CPU 0 instructions: 10000001 cycles: 3969519 heartbeat IPC: 2.5192 cumulative IPC: 2.5192 (Simulation time: 0 hr 0 min 40 sec) 
Heartbeat CPU 0 instructions: 20000000 cycles: 9332438 heartbeat IPC: 1.86466 cumulative IPC: 2.14306 (Simulation time: 0 hr 1 min 42 sec) 
Heartbeat CPU 0 instructions: 30000001 cycles: 14695431 heartbeat IPC: 1.86463 cumulative IPC: 2.04145 (Simulation time: 0 hr 2 min 43 sec) 
Heartbeat CPU 0 instructions: 40000000 cycles: 20078798 heartbeat IPC: 1.85757 cumulative IPC: 1.99215 (Simulation time: 0 hr 3 min 45 sec) 
Heartbeat CPU 0 instructions: 50000002 cycles: 25281259 heartbeat IPC: 1.92217 cumulative IPC: 1.97775 (Simulation time: 0 hr 4 min 44 sec) 
Heartbeat CPU 0 instructions: 60000002 cycles: 27781259 heartbeat IPC: 4 cumulative IPC: 2.15973 (Simulation time: 0 hr 5 min 2 sec) 
Heartbeat CPU 0 instructions: 70000001 cycles: 32453580 heartbeat IPC: 2.14026 cumulative IPC: 2.15693 (Simulation time: 0 hr 5 min 53 sec) 
Heartbeat CPU 0 instructions: 80000002 cycles: 38101478 heartbeat IPC: 1.77057 cumulative IPC: 2.09966 (Simulation time: 0 hr 6 min 58 sec) 
Heartbeat CPU 0 instructions: 90000001 cycles: 43749353 heartbeat IPC: 1.77058 cumulative IPC: 2.05717 (Simulation time: 0 hr 8 min 3 sec) 
Heartbeat CPU 0 instructions: 100000001 cycles: 47465086 heartbeat IPC: 2.69126 cumulative IPC: 2.10681 (Simulation time: 0 hr 8 min 39 sec) 
Heartbeat CPU 0 instructions: 110000000 cycles: 50554677 heartbeat IPC: 3.23667 cumulative IPC: 2.17586 (Simulation time: 0 hr 9 min 5 sec) 
Heartbeat CPU 0 instructions: 120000001 cycles: 53896554 heartbeat IPC: 2.99233 cumulative IPC: 2.22649 (Simulation time: 0 hr 9 min 34 sec) 
Heartbeat CPU 0 instructions: 130000000 cycles: 57137347 heartbeat IPC: 3.08566 cumulative IPC: 2.27522 (Simulation time: 0 hr 10 min 2 sec) 
Heartbeat CPU 0 instructions: 140000000 cycles: 59637347 heartbeat IPC: 4 cumulative IPC: 2.34752 (Simulation time: 0 hr 10 min 20 sec) 
Heartbeat CPU 0 instructions: 150000003 cycles: 63575991 heartbeat IPC: 2.53895 cumulative IPC: 2.35938 (Simulation time: 0 hr 10 min 55 sec) 
Heartbeat CPU 0 instructions: 160000004 cycles: 67408627 heartbeat IPC: 2.60917 cumulative IPC: 2.37358 (Simulation time: 0 hr 11 min 30 sec) 
Heartbeat CPU 0 instructions: 170000002 cycles: 70324533 heartbeat IPC: 3.42947 cumulative IPC: 2.41736 (Simulation time: 0 hr 11 min 56 sec) 
Heartbeat CPU 0 instructions: 180000002 cycles: 72944265 heartbeat IPC: 3.81718 cumulative IPC: 2.46764 (Simulation time: 0 hr 12 min 16 sec) 
Heartbeat CPU 0 instructions: 190000002 cycles: 75444265 heartbeat IPC: 4 cumulative IPC: 2.51842 (Simulation time: 0 hr 12 min 34 sec) 
Heartbeat CPU 0 instructions: 200000002 cycles: 77994489 heartbeat IPC: 3.92122 cumulative IPC: 2.56428 (Simulation time: 0 hr 12 min 54 sec) 

Warmup complete CPU 0 instructions: 200000002 cycles: 77994489 (Simulation time: 0 hr 12 min 54 sec) 

Heartbeat CPU 0 instructions: 210000002 cycles: 81207315 heartbeat IPC: 3.11252 cumulative IPC: 3.11252 (Simulation time: 0 hr 13 min 26 sec) 
Heartbeat CPU 0 instructions: 220000004 cycles: 84768039 heartbeat IPC: 2.80842 cumulative IPC: 2.95266 (Simulation time: 0 hr 14 min 1 sec) 
Heartbeat CPU 0 instructions: 230000002 cycles: 89321739 heartbeat IPC: 2.19602 cumulative IPC: 2.64848 (Simulation time: 0 hr 14 min 46 sec) 
Heartbeat CPU 0 instructions: 240000004 cycles: 94184022 heartbeat IPC: 2.05665 cumulative IPC: 2.47073 (Simulation time: 0 hr 15 min 33 sec) 
Heartbeat CPU 0 instructions: 250000002 cycles: 98543578 heartbeat IPC: 2.29381 cumulative IPC: 2.4332 (Simulation time: 0 hr 16 min 9 sec) 
Heartbeat CPU 0 instructions: 260000000 cycles: 103174860 heartbeat IPC: 2.15923 cumulative IPC: 2.38281 (Simulation time: 0 hr 16 min 47 sec) 
Heartbeat CPU 0 instructions: 270000000 cycles: 110097883 heartbeat IPC: 1.44446 cumulative IPC: 2.18045 (Simulation time: 0 hr 17 min 34 sec) 
Heartbeat CPU 0 instructions: 280000003 cycles: 117991609 heartbeat IPC: 1.26683 cumulative IPC: 2.00014 (Simulation time: 0 hr 18 min 29 sec) 
Heartbeat CPU 0 instructions: 290000001 cycles: 125134207 heartbeat IPC: 1.40005 cumulative IPC: 1.90922 (Simulation time: 0 hr 19 min 15 sec) 
Heartbeat CPU 0 instructions: 300000000 cycles: 127711916 heartbeat IPC: 3.87941 cumulative IPC: 2.01137 (Simulation time: 0 hr 19 min 35 sec) 
Heartbeat CPU 0 instructions: 310000002 cycles: 130847533 heartbeat IPC: 3.18917 cumulative IPC: 2.08124 (Simulation time: 0 hr 19 min 56 sec) 
Heartbeat CPU 0 instructions: 320000001 cycles: 134331366 heartbeat IPC: 2.8704 cumulative IPC: 2.13004 (Simulation time: 0 hr 20 min 21 sec) 
Heartbeat CPU 0 instructions: 330000000 cycles: 138461797 heartbeat IPC: 2.42105 cumulative IPC: 2.14992 (Simulation time: 0 hr 20 min 50 sec) 
Heartbeat CPU 0 instructions: 340000002 cycles: 143371449 heartbeat IPC: 2.0368 cumulative IPC: 2.14143 (Simulation time: 0 hr 21 min 34 sec) 
Heartbeat CPU 0 instructions: 350000000 cycles: 148288624 heartbeat IPC: 2.03369 cumulative IPC: 2.13389 (Simulation time: 0 hr 22 min 17 sec) 
Heartbeat CPU 0 instructions: 360000002 cycles: 153286451 heartbeat IPC: 2.00087 cumulative IPC: 2.12506 (Simulation time: 0 hr 23 min 2 sec) 
Heartbeat CPU 0 instructions: 370000004 cycles: 158232431 heartbeat IPC: 2.02184 cumulative IPC: 2.1187 (Simulation time: 0 hr 23 min 46 sec) 
Heartbeat CPU 0 instructions: 380000000 cycles: 163202497 heartbeat IPC: 2.01204 cumulative IPC: 2.11248 (Simulation time: 0 hr 24 min 30 sec) 
Heartbeat CPU 0 instructions: 390000000 cycles: 168023655 heartbeat IPC: 2.07419 cumulative IPC: 2.11043 (Simulation time: 0 hr 25 min 12 sec) 
Heartbeat CPU 0 instructions: 400000003 cycles: 172000827 heartbeat IPC: 2.51435 cumulative IPC: 2.12752 (Simulation time: 0 hr 25 min 47 sec) 
Heartbeat CPU 0 instructions: 410000000 cycles: 175944713 heartbeat IPC: 2.53557 cumulative IPC: 2.14395 (Simulation time: 0 hr 26 min 21 sec) 
Heartbeat CPU 0 instructions: 420000003 cycles: 179881650 heartbeat IPC: 2.54005 cumulative IPC: 2.15925 (Simulation time: 0 hr 26 min 56 sec) 
Heartbeat CPU 0 instructions: 430000000 cycles: 183771841 heartbeat IPC: 2.57057 cumulative IPC: 2.17438 (Simulation time: 0 hr 27 min 30 sec) 
Heartbeat CPU 0 instructions: 440000002 cycles: 188437391 heartbeat IPC: 2.14337 cumulative IPC: 2.17307 (Simulation time: 0 hr 28 min 11 sec) 
Heartbeat CPU 0 instructions: 450000003 cycles: 193671760 heartbeat IPC: 1.91045 cumulative IPC: 2.16119 (Simulation time: 0 hr 28 min 57 sec) 
Heartbeat CPU 0 instructions: 460000000 cycles: 198912036 heartbeat IPC: 1.9083 cumulative IPC: 2.15023 (Simulation time: 0 hr 29 min 43 sec) 
Heartbeat CPU 0 instructions: 470000003 cycles: 204154374 heartbeat IPC: 1.90755 cumulative IPC: 2.14014 (Simulation time: 0 hr 30 min 28 sec) 
Heartbeat CPU 0 instructions: 480000003 cycles: 209181216 heartbeat IPC: 1.98932 cumulative IPC: 2.13436 (Simulation time: 0 hr 31 min 3 sec) 
Heartbeat CPU 0 instructions: 490000003 cycles: 211935939 heartbeat IPC: 3.63013 cumulative IPC: 2.16513 (Simulation time: 0 hr 31 min 31 sec) 
Heartbeat CPU 0 instructions: 500000003 cycles: 214704656 heartbeat IPC: 3.61178 cumulative IPC: 2.19442 (Simulation time: 0 hr 31 min 58 sec) 
Heartbeat CPU 0 instructions: 510000004 cycles: 223452800 heartbeat IPC: 1.1431 cumulative IPC: 2.13119 (Simulation time: 0 hr 32 min 59 sec) 
Heartbeat CPU 0 instructions: 520000004 cycles: 226862101 heartbeat IPC: 2.93315 cumulative IPC: 2.14956 (Simulation time: 0 hr 33 min 25 sec) 
Heartbeat CPU 0 instructions: 530000003 cycles: 231463829 heartbeat IPC: 2.1731 cumulative IPC: 2.15027 (Simulation time: 0 hr 34 min 1 sec) 
Heartbeat CPU 0 instructions: 540000002 cycles: 236188104 heartbeat IPC: 2.11673 cumulative IPC: 2.14927 (Simulation time: 0 hr 34 min 37 sec) 
Heartbeat CPU 0 instructions: 550000004 cycles: 240876746 heartbeat IPC: 2.13281 cumulative IPC: 2.14879 (Simulation time: 0 hr 35 min 13 sec) 
Heartbeat CPU 0 instructions: 560000004 cycles: 245551338 heartbeat IPC: 2.13922 cumulative IPC: 2.14852 (Simulation time: 0 hr 35 min 48 sec) 
Heartbeat CPU 0 instructions: 570000001 cycles: 250283633 heartbeat IPC: 2.11314 cumulative IPC: 2.14755 (Simulation time: 0 hr 36 min 23 sec) 
Heartbeat CPU 0 instructions: 580000002 cycles: 254955132 heartbeat IPC: 2.14064 cumulative IPC: 2.14737 (Simulation time: 0 hr 37 min 0 sec) 
Heartbeat CPU 0 instructions: 590000003 cycles: 259713562 heartbeat IPC: 2.10153 cumulative IPC: 2.14617 (Simulation time: 0 hr 37 min 35 sec) 
Heartbeat CPU 0 instructions: 600000002 cycles: 264529224 heartbeat IPC: 2.07656 cumulative IPC: 2.14437 (Simulation time: 0 hr 38 min 11 sec) 
Heartbeat CPU 0 instructions: 610000003 cycles: 268464732 heartbeat IPC: 2.54097 cumulative IPC: 2.15257 (Simulation time: 0 hr 38 min 41 sec) 
Heartbeat CPU 0 instructions: 620000003 cycles: 271039492 heartbeat IPC: 3.88386 cumulative IPC: 2.17566 (Simulation time: 0 hr 39 min 1 sec) 
Heartbeat CPU 0 instructions: 630000002 cycles: 274692931 heartbeat IPC: 2.73715 cumulative IPC: 2.18609 (Simulation time: 0 hr 39 min 29 sec) 
Heartbeat CPU 0 instructions: 640000002 cycles: 279453981 heartbeat IPC: 2.10038 cumulative IPC: 2.18406 (Simulation time: 0 hr 40 min 12 sec) 
Heartbeat CPU 0 instructions: 650000001 cycles: 284160531 heartbeat IPC: 2.1247 cumulative IPC: 2.18271 (Simulation time: 0 hr 40 min 55 sec) 
Heartbeat CPU 0 instructions: 660000004 cycles: 288929219 heartbeat IPC: 2.09701 cumulative IPC: 2.18077 (Simulation time: 0 hr 41 min 38 sec) 
Heartbeat CPU 0 instructions: 670000001 cycles: 293677900 heartbeat IPC: 2.10585 cumulative IPC: 2.17912 (Simulation time: 0 hr 42 min 21 sec) 
Heartbeat CPU 0 instructions: 680000001 cycles: 298426485 heartbeat IPC: 2.10589 cumulative IPC: 2.17754 (Simulation time: 0 hr 43 min 3 sec) 
Heartbeat CPU 0 instructions: 690000000 cycles: 303026980 heartbeat IPC: 2.17368 cumulative IPC: 2.17746 (Simulation time: 0 hr 43 min 45 sec) 
Heartbeat CPU 0 instructions: 700000003 cycles: 306767670 heartbeat IPC: 2.6733 cumulative IPC: 2.18557 (Simulation time: 0 hr 44 min 18 sec) 
Finished CPU 0 instructions: 500000001 cycles: 228773181 cumulative IPC: 2.18557 (Simulation time: 0 hr 44 min 18 sec) 

ChampSim completed all CPUs

Region of Interest Statistics

CPU 0 cumulative IPC: 2.18557 instructions: 500000001 cycles: 228773181
cpu0_L1I TOTAL     ACCESS:     549707  HIT:     548396  MISS:       1311
cpu0_L1I LOAD      ACCESS:     549707  HIT:     548396  MISS:       1311
cpu0_L1I RFO       ACCESS:          0  HIT:          0  MISS:          0
cpu0_L1I PREFETCH  ACCESS:          0  HIT:          0  MISS:          0
cpu0_L1I WRITEBACK ACCESS:          0  HIT:          0  MISS:          0
cpu0_L1I TRANSLATION ACCESS:          0  HIT:          0  MISS:          0
cpu0_L1I PREFETCH  REQUESTED:          0  ISSUED:          0  USEFUL:          0  USELESS:          0
cpu0_L1I AVERAGE MISS LATENCY: 184.05 cycles
cpu0_DTLB TOTAL     ACCESS:  129725058  HIT:  129575377  MISS:     149681
cpu0_DTLB LOAD      ACCESS:  110278321  HIT:  110163669  MISS:     114652
cpu0_DTLB RFO       ACCESS:   19446737  HIT:   19411708  MISS:      35029
cpu0_DTLB PREFETCH  ACCESS:          0  HIT:          0  MISS:          0
cpu0_DTLB WRITEBACK ACCESS:          0  HIT:          0  MISS:          0
cpu0_DTLB TRANSLATION ACCESS:          0  HIT:          0  MISS:          0
cpu0_DTLB PREFETCH  REQUESTED:          0  ISSUED:          0  USEFUL:          0  USELESS:          0
cpu0_DTLB AVERAGE MISS LATENCY: 33.4714 cycles
cpu0_ITLB TOTAL     ACCESS:   11582781  HIT:   11582749  MISS:         32
cpu0_ITLB LOAD      ACCESS:   11582781  HIT:   11582749  MISS:         32
cpu0_ITLB RFO       ACCESS:          0  HIT:          0  MISS:          0
cpu0_ITLB PREFETCH  ACCESS:          0  HIT:          0  MISS:          0
cpu0_ITLB WRITEBACK ACCESS:          0  HIT:          0  MISS:          0
cpu0_ITLB TRANSLATION ACCESS:          0  HIT:          0  MISS:          0
cpu0_ITLB PREFETCH  REQUESTED:          0  ISSUED:          0  USEFUL:          0  USELESS:          0
cpu0_ITLB AVERAGE MISS LATENCY: 220.125 cycles
cpu0_STLB TOTAL     ACCESS:     149713  HIT:     117695  MISS:      32018
cpu0_STLB LOAD      ACCESS:     114684  HIT:      91558  MISS:      23126
cpu0_STLB RFO       ACCESS:      35029  HIT:      26137  MISS:       8892
cpu0_STLB PREFETCH  ACCESS:          0  HIT:          0  MISS:          0
cpu0_STLB WRITEBACK ACCESS:          0  HIT:          0  MISS:          0
cpu0_STLB TRANSLATION ACCESS:          0  HIT:          0  MISS:          0
cpu0_STLB PREFETCH  REQUESTED:          0  ISSUED:          0  USEFUL:          0  USELESS:          0
cpu0_STLB AVERAGE MISS LATENCY: 113.629 cycles
cpu0_L1D TOTAL     ACCESS:  134645167  HIT:  130874575  MISS:    3770592
cpu0_L1D LOAD      ACCESS:  107352430  HIT:  104207089  MISS:    3145341
cpu0_L1D RFO       ACCESS:   27260840  HIT:   26635675  MISS:     625165
cpu0_L1D PREFETCH  ACCESS:          0  HIT:          0  MISS:          0
cpu0_L1D WRITEBACK ACCESS:          0  HIT:          0  MISS:          0
cpu0_L1D TRANSLATION ACCESS:      31897  HIT:      31811  MISS:         86
cpu0_L1D PREFETCH  REQUESTED:          0  ISSUED:          0  USEFUL:          0  USELESS:          0
cpu0_L1D AVERAGE MISS LATENCY: 103.576 cycles
cpu0_L2C TOTAL     ACCESS:    5126480  HIT:    3676281  MISS:    1450199
cpu0_L2C LOAD      ACCESS:    3146652  HIT:    2187892  MISS:     958760
cpu0_L2C RFO       ACCESS:     625165  HIT:     133733  MISS:     491432
cpu0_L2C PREFETCH  ACCESS:          0  HIT:          0  MISS:          0
cpu0_L2C WRITEBACK ACCESS:    1354577  HIT:    1354574  MISS:          3
cpu0_L2C TRANSLATION ACCESS:         86  HIT:         82  MISS:          4
cpu0_L2C PREFETCH  REQUESTED:          0  ISSUED:          0  USEFUL:          0  USELESS:          0
cpu0_L2C AVERAGE MISS LATENCY: 240.805 cycles
LLC TOTAL     ACCESS:    2225828  HIT:     414805  MISS:    1811023
LLC LOAD      ACCESS:     958760  HIT:     384243  MISS:     574517
LLC RFO       ACCESS:     491432  HIT:       4836  MISS:     486596
LLC PREFETCH  ACCESS:     416268  HIT:      25725  MISS:     390543
LLC WRITEBACK ACCESS:     359364  HIT:          1  MISS:     359363
LLC TRANSLATION ACCESS:          4  HIT:          0  MISS:          4
LLC PREFETCH  REQUESTED:     958760  ISSUED:     958760  USEFUL:     890339  USELESS:      31364
LLC AVERAGE MISS LATENCY: 172.98 cycles

DRAM Statistics
 CHANNEL 0
 RQ ROW_BUFFER_HIT:     202036  ROW_BUFFER_MISS:    1249546
 DBUS AVG_CONGESTED_CYCLE:     3.9399
 WQ ROW_BUFFER_HIT:      32592  ROW_BUFFER_MISS:     314510  FULL:          0


CPU 0 Branch Prediction Accuracy: 98.6086% MPKI: 0.675662 Average ROB Occupancy at Mispredict: 283.08
Branch type MPKI
BRANCH_DIRECT_JUMP: 0.000242
BRANCH_INDIRECT: 0
BRANCH_CONDITIONAL: 0.67519
BRANCH_DIRECT_CALL: 0.000114
BRANCH_INDIRECT_CALL: 0
BRANCH_RETURN: 0.000116

