/home/caslab/workspace/sim/ChampSim/bin/champsim --warmup_instructions 200000000 --simulation_instructions 500000000/ /home/caslab/workspace/sim/traces/speccpu_by_champsim481.wrf-196B.champsimtrace.xz
start simulation for 481.wrf-196B.champsimtrace.xz

*** ChampSim Multicore Out-of-Order Simulator ***

Warmup Instructions: 200000000
Simulation Instructions: 500000000
Number of CPUs: 1
Off-chip DRAM Size: 4 GiB Channels: 1 Width: 64-bit Data Rate: 3200 MT/s

VirtualMemory physical capacity: 8588881920 num_ppages: 2096895
VirtualMemory page size: 4096 log2_page_size: 12

CPU 0 runs /home/caslab/workspace/sim/traces/speccpu_by_champsim/481.wrf-196B.champsimtrace.xz
CPU 0 Bimodal branch predictor
Basic BTB sets: 1024 ways: 8 indirect buffer size: 4096 RAS size: 64
LLC next line prefetcher
WARNING: The extended signature CACHE::prefetch_line(ip, base_addr, pf_addr, fill_this_level, prefetch_metadata) is deprecated.
WARNING: Use CACHE::prefetch_line(pf_addr, fill_this_level, prefetch_metadata) instead.
Heartbeat CPU 0 instructions: 10000003 cycles: 3156854 heartbeat IPC: 3.16771 cumulative IPC: 3.16771 (Simulation time: 0 hr 0 min 28 sec) 
Heartbeat CPU 0 instructions: 20000002 cycles: 6322837 heartbeat IPC: 3.15858 cumulative IPC: 3.16314 (Simulation time: 0 hr 0 min 57 sec) 
Heartbeat CPU 0 instructions: 30000001 cycles: 9164461 heartbeat IPC: 3.51911 cumulative IPC: 3.27351 (Simulation time: 0 hr 1 min 18 sec) 
Heartbeat CPU 0 instructions: 40000003 cycles: 11999538 heartbeat IPC: 3.52724 cumulative IPC: 3.33346 (Simulation time: 0 hr 1 min 40 sec) 
Heartbeat CPU 0 instructions: 50000004 cycles: 14842459 heartbeat IPC: 3.51751 cumulative IPC: 3.36871 (Simulation time: 0 hr 2 min 4 sec) 
Heartbeat CPU 0 instructions: 60000003 cycles: 17682302 heartbeat IPC: 3.52132 cumulative IPC: 3.39322 (Simulation time: 0 hr 2 min 28 sec) 
Heartbeat CPU 0 instructions: 70000001 cycles: 20551570 heartbeat IPC: 3.48521 cumulative IPC: 3.40607 (Simulation time: 0 hr 2 min 53 sec) 
Heartbeat CPU 0 instructions: 80000000 cycles: 23573057 heartbeat IPC: 3.30963 cumulative IPC: 3.3937 (Simulation time: 0 hr 3 min 20 sec) 
Heartbeat CPU 0 instructions: 90000000 cycles: 26586666 heartbeat IPC: 3.31828 cumulative IPC: 3.38516 (Simulation time: 0 hr 3 min 47 sec) 
Heartbeat CPU 0 instructions: 100000000 cycles: 29608900 heartbeat IPC: 3.30881 cumulative IPC: 3.37736 (Simulation time: 0 hr 4 min 13 sec) 
Heartbeat CPU 0 instructions: 110000000 cycles: 32641616 heartbeat IPC: 3.29737 cumulative IPC: 3.36993 (Simulation time: 0 hr 4 min 38 sec) 
Heartbeat CPU 0 instructions: 120000002 cycles: 35613075 heartbeat IPC: 3.36535 cumulative IPC: 3.36955 (Simulation time: 0 hr 5 min 2 sec) 
Heartbeat CPU 0 instructions: 130000001 cycles: 38430219 heartbeat IPC: 3.54969 cumulative IPC: 3.38275 (Simulation time: 0 hr 5 min 24 sec) 
Heartbeat CPU 0 instructions: 140000002 cycles: 41247383 heartbeat IPC: 3.54967 cumulative IPC: 3.39415 (Simulation time: 0 hr 5 min 46 sec) 
Heartbeat CPU 0 instructions: 150000001 cycles: 44223677 heartbeat IPC: 3.35988 cumulative IPC: 3.39185 (Simulation time: 0 hr 6 min 10 sec) 
Heartbeat CPU 0 instructions: 160000000 cycles: 47316728 heartbeat IPC: 3.23305 cumulative IPC: 3.38147 (Simulation time: 0 hr 6 min 38 sec) 
Heartbeat CPU 0 instructions: 170000001 cycles: 50407343 heartbeat IPC: 3.2356 cumulative IPC: 3.37252 (Simulation time: 0 hr 7 min 5 sec) 
Heartbeat CPU 0 instructions: 180000002 cycles: 53227633 heartbeat IPC: 3.54574 cumulative IPC: 3.3817 (Simulation time: 0 hr 7 min 27 sec) 
Heartbeat CPU 0 instructions: 190000002 cycles: 55983850 heartbeat IPC: 3.62816 cumulative IPC: 3.39384 (Simulation time: 0 hr 7 min 49 sec) 
Heartbeat CPU 0 instructions: 200000000 cycles: 58793426 heartbeat IPC: 3.55926 cumulative IPC: 3.40174 (Simulation time: 0 hr 8 min 10 sec) 

Warmup complete CPU 0 instructions: 200000004 cycles: 58793427 (Simulation time: 0 hr 8 min 10 sec) 

Heartbeat CPU 0 instructions: 210000004 cycles: 61801751 heartbeat IPC: 3.32411 cumulative IPC: 3.32411 (Simulation time: 0 hr 8 min 36 sec) 
Heartbeat CPU 0 instructions: 220000004 cycles: 64836686 heartbeat IPC: 3.29496 cumulative IPC: 3.30947 (Simulation time: 0 hr 9 min 2 sec) 
Heartbeat CPU 0 instructions: 230000001 cycles: 67935732 heartbeat IPC: 3.2268 cumulative IPC: 3.28145 (Simulation time: 0 hr 9 min 25 sec) 
Heartbeat CPU 0 instructions: 240000001 cycles: 71044499 heartbeat IPC: 3.21671 cumulative IPC: 3.26502 (Simulation time: 0 hr 9 min 49 sec) 
Heartbeat CPU 0 instructions: 250000002 cycles: 74063435 heartbeat IPC: 3.31243 cumulative IPC: 3.27439 (Simulation time: 0 hr 10 min 12 sec) 
Heartbeat CPU 0 instructions: 260000000 cycles: 76980044 heartbeat IPC: 3.42864 cumulative IPC: 3.29913 (Simulation time: 0 hr 10 min 34 sec) 
Heartbeat CPU 0 instructions: 270000002 cycles: 80574355 heartbeat IPC: 2.78217 cumulative IPC: 3.21382 (Simulation time: 0 hr 11 min 4 sec) 
Heartbeat CPU 0 instructions: 280000000 cycles: 84734266 heartbeat IPC: 2.4039 cumulative IPC: 3.08394 (Simulation time: 0 hr 11 min 40 sec) 
Heartbeat CPU 0 instructions: 290000004 cycles: 89848191 heartbeat IPC: 1.95545 cumulative IPC: 2.89811 (Simulation time: 0 hr 12 min 23 sec) 
Heartbeat CPU 0 instructions: 300000001 cycles: 97388499 heartbeat IPC: 1.32621 cumulative IPC: 2.591 (Simulation time: 0 hr 13 min 22 sec) 
Heartbeat CPU 0 instructions: 310000003 cycles: 104935314 heartbeat IPC: 1.32506 cumulative IPC: 2.38395 (Simulation time: 0 hr 14 min 22 sec) 
Heartbeat CPU 0 instructions: 320000001 cycles: 110804265 heartbeat IPC: 1.70388 cumulative IPC: 2.30721 (Simulation time: 0 hr 15 min 16 sec) 
Heartbeat CPU 0 instructions: 330000003 cycles: 116126258 heartbeat IPC: 1.879 cumulative IPC: 2.26746 (Simulation time: 0 hr 16 min 10 sec) 
Heartbeat CPU 0 instructions: 340000002 cycles: 121448659 heartbeat IPC: 1.87885 cumulative IPC: 2.23445 (Simulation time: 0 hr 17 min 3 sec) 
Heartbeat CPU 0 instructions: 350000004 cycles: 126770727 heartbeat IPC: 1.87897 cumulative IPC: 2.20662 (Simulation time: 0 hr 17 min 56 sec) 
Heartbeat CPU 0 instructions: 360000000 cycles: 132863581 heartbeat IPC: 1.64127 cumulative IPC: 2.16011 (Simulation time: 0 hr 18 min 50 sec) 
Heartbeat CPU 0 instructions: 370000001 cycles: 139810971 heartbeat IPC: 1.43939 cumulative IPC: 2.09831 (Simulation time: 0 hr 19 min 44 sec) 
Heartbeat CPU 0 instructions: 380000001 cycles: 146758705 heartbeat IPC: 1.43932 cumulative IPC: 2.04626 (Simulation time: 0 hr 20 min 39 sec) 
Heartbeat CPU 0 instructions: 390000001 cycles: 153730896 heartbeat IPC: 1.43427 cumulative IPC: 2.00132 (Simulation time: 0 hr 21 min 34 sec) 
Heartbeat CPU 0 instructions: 400000002 cycles: 159712527 heartbeat IPC: 1.67178 cumulative IPC: 1.98179 (Simulation time: 0 hr 22 min 26 sec) 
Heartbeat CPU 0 instructions: 410000000 cycles: 165249634 heartbeat IPC: 1.806 cumulative IPC: 1.97264 (Simulation time: 0 hr 23 min 15 sec) 
Heartbeat CPU 0 instructions: 420000004 cycles: 170786767 heartbeat IPC: 1.80599 cumulative IPC: 1.9644 (Simulation time: 0 hr 24 min 4 sec) 
Heartbeat CPU 0 instructions: 430000002 cycles: 176345974 heartbeat IPC: 1.79882 cumulative IPC: 1.95657 (Simulation time: 0 hr 24 min 54 sec) 
Heartbeat CPU 0 instructions: 440000000 cycles: 180909494 heartbeat IPC: 2.19129 cumulative IPC: 1.96534 (Simulation time: 0 hr 25 min 35 sec) 
Heartbeat CPU 0 instructions: 450000000 cycles: 183807230 heartbeat IPC: 3.45097 cumulative IPC: 1.99978 (Simulation time: 0 hr 26 min 2 sec) 
Heartbeat CPU 0 instructions: 460000004 cycles: 189545801 heartbeat IPC: 1.74259 cumulative IPC: 1.98849 (Simulation time: 0 hr 26 min 56 sec) 
Heartbeat CPU 0 instructions: 470000000 cycles: 195283989 heartbeat IPC: 1.74271 cumulative IPC: 1.97816 (Simulation time: 0 hr 27 min 50 sec) 
Heartbeat CPU 0 instructions: 480000001 cycles: 200847954 heartbeat IPC: 1.79728 cumulative IPC: 1.97107 (Simulation time: 0 hr 28 min 43 sec) 
Heartbeat CPU 0 instructions: 490000003 cycles: 203986092 heartbeat IPC: 3.1866 cumulative IPC: 1.99735 (Simulation time: 0 hr 29 min 20 sec) 
Heartbeat CPU 0 instructions: 500000002 cycles: 207172024 heartbeat IPC: 3.1388 cumulative IPC: 2.02185 (Simulation time: 0 hr 29 min 56 sec) 
Heartbeat CPU 0 instructions: 510000003 cycles: 210614723 heartbeat IPC: 2.9047 cumulative IPC: 2.04187 (Simulation time: 0 hr 30 min 34 sec) 
Heartbeat CPU 0 instructions: 520000000 cycles: 213708977 heartbeat IPC: 3.2318 cumulative IPC: 2.06564 (Simulation time: 0 hr 31 min 4 sec) 
Heartbeat CPU 0 instructions: 530000000 cycles: 216693522 heartbeat IPC: 3.35059 cumulative IPC: 2.08993 (Simulation time: 0 hr 31 min 27 sec) 
Heartbeat CPU 0 instructions: 540000001 cycles: 220897528 heartbeat IPC: 2.37868 cumulative IPC: 2.09742 (Simulation time: 0 hr 32 min 11 sec) 
Heartbeat CPU 0 instructions: 550000000 cycles: 224395604 heartbeat IPC: 2.85871 cumulative IPC: 2.1135 (Simulation time: 0 hr 32 min 49 sec) 
Heartbeat CPU 0 instructions: 560000004 cycles: 227376714 heartbeat IPC: 3.35446 cumulative IPC: 2.13544 (Simulation time: 0 hr 33 min 23 sec) 
Heartbeat CPU 0 instructions: 570000001 cycles: 230503496 heartbeat IPC: 3.19818 cumulative IPC: 2.15479 (Simulation time: 0 hr 33 min 56 sec) 
Heartbeat CPU 0 instructions: 580000003 cycles: 233630595 heartbeat IPC: 3.19785 cumulative IPC: 2.17345 (Simulation time: 0 hr 34 min 30 sec) 
Heartbeat CPU 0 instructions: 590000002 cycles: 236834188 heartbeat IPC: 3.12149 cumulative IPC: 2.19051 (Simulation time: 0 hr 35 min 4 sec) 
Heartbeat CPU 0 instructions: 600000004 cycles: 240095008 heartbeat IPC: 3.06671 cumulative IPC: 2.20627 (Simulation time: 0 hr 35 min 36 sec) 
Heartbeat CPU 0 instructions: 610000004 cycles: 244011360 heartbeat IPC: 2.5534 cumulative IPC: 2.21361 (Simulation time: 0 hr 36 min 15 sec) 
Heartbeat CPU 0 instructions: 620000001 cycles: 248495911 heartbeat IPC: 2.22988 cumulative IPC: 2.21399 (Simulation time: 0 hr 36 min 59 sec) 
Heartbeat CPU 0 instructions: 630000000 cycles: 253221100 heartbeat IPC: 2.11632 cumulative IPC: 2.21162 (Simulation time: 0 hr 37 min 45 sec) 
Heartbeat CPU 0 instructions: 640000000 cycles: 257325640 heartbeat IPC: 2.43633 cumulative IPC: 2.21626 (Simulation time: 0 hr 38 min 18 sec) 
Heartbeat CPU 0 instructions: 650000004 cycles: 262538218 heartbeat IPC: 1.91844 cumulative IPC: 2.20865 (Simulation time: 0 hr 38 min 58 sec) 
Heartbeat CPU 0 instructions: 660000001 cycles: 269937464 heartbeat IPC: 1.35149 cumulative IPC: 2.17861 (Simulation time: 0 hr 39 min 48 sec) 
Heartbeat CPU 0 instructions: 670000004 cycles: 277614090 heartbeat IPC: 1.30266 cumulative IPC: 2.14788 (Simulation time: 0 hr 40 min 43 sec) 
Heartbeat CPU 0 instructions: 680000003 cycles: 282710767 heartbeat IPC: 1.96206 cumulative IPC: 2.14365 (Simulation time: 0 hr 41 min 16 sec) 
Heartbeat CPU 0 instructions: 690000000 cycles: 285294107 heartbeat IPC: 3.87096 cumulative IPC: 2.16335 (Simulation time: 0 hr 41 min 37 sec) 
Heartbeat CPU 0 instructions: 700000004 cycles: 288715017 heartbeat IPC: 2.9232 cumulative IPC: 2.17465 (Simulation time: 0 hr 42 min 0 sec) 
Finished CPU 0 instructions: 500000000 cycles: 229921590 cumulative IPC: 2.17465 (Simulation time: 0 hr 42 min 0 sec) 

ChampSim completed all CPUs

Region of Interest Statistics

CPU 0 cumulative IPC: 2.17465 instructions: 500000000 cycles: 229921590
cpu0_L1I TOTAL     ACCESS:    4273122  HIT:    4271948  MISS:       1174
cpu0_L1I LOAD      ACCESS:    4273122  HIT:    4271948  MISS:       1174
cpu0_L1I RFO       ACCESS:          0  HIT:          0  MISS:          0
cpu0_L1I PREFETCH  ACCESS:          0  HIT:          0  MISS:          0
cpu0_L1I WRITEBACK ACCESS:          0  HIT:          0  MISS:          0
cpu0_L1I TRANSLATION ACCESS:          0  HIT:          0  MISS:          0
cpu0_L1I PREFETCH  REQUESTED:          0  ISSUED:          0  USEFUL:          0  USELESS:          0
cpu0_L1I AVERAGE MISS LATENCY: 154.145 cycles
cpu0_DTLB TOTAL     ACCESS:  143330789  HIT:  143251610  MISS:      79179
cpu0_DTLB LOAD      ACCESS:  127328644  HIT:  127280523  MISS:      48121
cpu0_DTLB RFO       ACCESS:   16002145  HIT:   15971087  MISS:      31058
cpu0_DTLB PREFETCH  ACCESS:          0  HIT:          0  MISS:          0
cpu0_DTLB WRITEBACK ACCESS:          0  HIT:          0  MISS:          0
cpu0_DTLB TRANSLATION ACCESS:          0  HIT:          0  MISS:          0
cpu0_DTLB PREFETCH  REQUESTED:          0  ISSUED:          0  USEFUL:          0  USELESS:          0
cpu0_DTLB AVERAGE MISS LATENCY: 52.8338 cycles
cpu0_ITLB TOTAL     ACCESS:    7369984  HIT:    7369947  MISS:         37
cpu0_ITLB LOAD      ACCESS:    7369984  HIT:    7369947  MISS:         37
cpu0_ITLB RFO       ACCESS:          0  HIT:          0  MISS:          0
cpu0_ITLB PREFETCH  ACCESS:          0  HIT:          0  MISS:          0
cpu0_ITLB WRITEBACK ACCESS:          0  HIT:          0  MISS:          0
cpu0_ITLB TRANSLATION ACCESS:          0  HIT:          0  MISS:          0
cpu0_ITLB PREFETCH  REQUESTED:          0  ISSUED:          0  USEFUL:          0  USELESS:          0
cpu0_ITLB AVERAGE MISS LATENCY: 221.459 cycles
cpu0_STLB TOTAL     ACCESS:      79216  HIT:      59165  MISS:      20051
cpu0_STLB LOAD      ACCESS:      48158  HIT:      33467  MISS:      14691
cpu0_STLB RFO       ACCESS:      31058  HIT:      25698  MISS:       5360
cpu0_STLB PREFETCH  ACCESS:          0  HIT:          0  MISS:          0
cpu0_STLB WRITEBACK ACCESS:          0  HIT:          0  MISS:          0
cpu0_STLB TRANSLATION ACCESS:          0  HIT:          0  MISS:          0
cpu0_STLB PREFETCH  REQUESTED:          0  ISSUED:          0  USEFUL:          0  USELESS:          0
cpu0_STLB AVERAGE MISS LATENCY: 172.593 cycles
cpu0_L1D TOTAL     ACCESS:  147931167  HIT:  144635231  MISS:    3295936
cpu0_L1D LOAD      ACCESS:  124317900  HIT:  121400728  MISS:    2917172
cpu0_L1D RFO       ACCESS:   23593234  HIT:   23214534  MISS:     378700
cpu0_L1D PREFETCH  ACCESS:          0  HIT:          0  MISS:          0
cpu0_L1D WRITEBACK ACCESS:          0  HIT:          0  MISS:          0
cpu0_L1D TRANSLATION ACCESS:      20033  HIT:      19969  MISS:         64
cpu0_L1D PREFETCH  REQUESTED:          0  ISSUED:          0  USEFUL:          0  USELESS:          0
cpu0_L1D AVERAGE MISS LATENCY: 58.6695 cycles
cpu0_L2C TOTAL     ACCESS:    4434127  HIT:    3285936  MISS:    1148191
cpu0_L2C LOAD      ACCESS:    2918346  HIT:    2082236  MISS:     836110
cpu0_L2C RFO       ACCESS:     378700  HIT:      66625  MISS:     312075
cpu0_L2C PREFETCH  ACCESS:          0  HIT:          0  MISS:          0
cpu0_L2C WRITEBACK ACCESS:    1137017  HIT:    1137015  MISS:          2
cpu0_L2C TRANSLATION ACCESS:         64  HIT:         60  MISS:          4
cpu0_L2C PREFETCH  REQUESTED:          0  ISSUED:          0  USEFUL:          0  USELESS:          0
cpu0_L2C AVERAGE MISS LATENCY: 136.953 cycles
LLC TOTAL     ACCESS:    1701174  HIT:     442953  MISS:    1258221
LLC LOAD      ACCESS:     836110  HIT:     438008  MISS:     398102
LLC RFO       ACCESS:     312075  HIT:         95  MISS:     311980
LLC PREFETCH  ACCESS:     455627  HIT:       4850  MISS:     450777
LLC WRITEBACK ACCESS:      97358  HIT:          0  MISS:      97358
LLC TRANSLATION ACCESS:          4  HIT:          0  MISS:          4
LLC PREFETCH  REQUESTED:     836110  ISSUED:     836110  USEFUL:     806845  USELESS:      17419
LLC AVERAGE MISS LATENCY: 124.604 cycles

DRAM Statistics
 CHANNEL 0
 RQ ROW_BUFFER_HIT:     294420  ROW_BUFFER_MISS:     866386
 DBUS AVG_CONGESTED_CYCLE:     3.9272
 WQ ROW_BUFFER_HIT:      10113  ROW_BUFFER_MISS:      79152  FULL:          0


CPU 0 Branch Prediction Accuracy: 98.6881% MPKI: 0.460744 Average ROB Occupancy at Mispredict: 289.886
Branch type MPKI
BRANCH_DIRECT_JUMP: 0.000222
BRANCH_INDIRECT: 0
BRANCH_CONDITIONAL: 0.460428
BRANCH_DIRECT_CALL: 4.8e-05
BRANCH_INDIRECT_CALL: 0
BRANCH_RETURN: 4.6e-05

