/home/caslab/workspace/sim/ChampSim/bin/champsim --warmup_instructions 200000000 --simulation_instructions 500000000/ /home/caslab/workspace/sim/traces/speccpu_by_champsim481.wrf-1170B.champsimtrace.xz
start simulation for 481.wrf-1170B.champsimtrace.xz

*** ChampSim Multicore Out-of-Order Simulator ***

Warmup Instructions: 200000000
Simulation Instructions: 500000000
Number of CPUs: 1
Off-chip DRAM Size: 4 GiB Channels: 1 Width: 64-bit Data Rate: 3200 MT/s

VirtualMemory physical capacity: 8588881920 num_ppages: 2096895
VirtualMemory page size: 4096 log2_page_size: 12

CPU 0 runs /home/caslab/workspace/sim/traces/speccpu_by_champsim/481.wrf-1170B.champsimtrace.xz
CPU 0 Bimodal branch predictor
Basic BTB sets: 1024 ways: 8 indirect buffer size: 4096 RAS size: 64
LLC next line prefetcher
WARNING: The extended signature CACHE::prefetch_line(ip, base_addr, pf_addr, fill_this_level, prefetch_metadata) is deprecated.
WARNING: Use CACHE::prefetch_line(pf_addr, fill_this_level, prefetch_metadata) instead.
Heartbeat CPU 0 instructions: 10000002 cycles: 3182069 heartbeat IPC: 3.14261 cumulative IPC: 3.14261 (Simulation time: 0 hr 0 min 31 sec) 
Heartbeat CPU 0 instructions: 20000001 cycles: 6363802 heartbeat IPC: 3.14294 cumulative IPC: 3.14278 (Simulation time: 0 hr 1 min 1 sec) 
Heartbeat CPU 0 instructions: 30000001 cycles: 9545445 heartbeat IPC: 3.14303 cumulative IPC: 3.14286 (Simulation time: 0 hr 1 min 32 sec) 
Heartbeat CPU 0 instructions: 40000000 cycles: 12727205 heartbeat IPC: 3.14291 cumulative IPC: 3.14287 (Simulation time: 0 hr 2 min 2 sec) 
Heartbeat CPU 0 instructions: 50000000 cycles: 15908921 heartbeat IPC: 3.14296 cumulative IPC: 3.14289 (Simulation time: 0 hr 2 min 32 sec) 
Heartbeat CPU 0 instructions: 60000002 cycles: 19090578 heartbeat IPC: 3.14302 cumulative IPC: 3.14291 (Simulation time: 0 hr 3 min 2 sec) 
Heartbeat CPU 0 instructions: 70000004 cycles: 22271532 heartbeat IPC: 3.14371 cumulative IPC: 3.14303 (Simulation time: 0 hr 3 min 32 sec) 
Heartbeat CPU 0 instructions: 80000000 cycles: 25452534 heartbeat IPC: 3.14366 cumulative IPC: 3.14311 (Simulation time: 0 hr 4 min 3 sec) 
Heartbeat CPU 0 instructions: 90000000 cycles: 28633754 heartbeat IPC: 3.14345 cumulative IPC: 3.14314 (Simulation time: 0 hr 4 min 33 sec) 
Heartbeat CPU 0 instructions: 100000002 cycles: 31815392 heartbeat IPC: 3.14304 cumulative IPC: 3.14313 (Simulation time: 0 hr 5 min 3 sec) 
Heartbeat CPU 0 instructions: 110000003 cycles: 34997053 heartbeat IPC: 3.14301 cumulative IPC: 3.14312 (Simulation time: 0 hr 5 min 33 sec) 
Heartbeat CPU 0 instructions: 120000000 cycles: 38178593 heartbeat IPC: 3.14313 cumulative IPC: 3.14312 (Simulation time: 0 hr 6 min 4 sec) 
Heartbeat CPU 0 instructions: 130000001 cycles: 41360070 heartbeat IPC: 3.14319 cumulative IPC: 3.14313 (Simulation time: 0 hr 6 min 34 sec) 
Heartbeat CPU 0 instructions: 140000003 cycles: 44541472 heartbeat IPC: 3.14327 cumulative IPC: 3.14314 (Simulation time: 0 hr 7 min 5 sec) 
Heartbeat CPU 0 instructions: 150000002 cycles: 47722351 heartbeat IPC: 3.14378 cumulative IPC: 3.14318 (Simulation time: 0 hr 7 min 36 sec) 
Heartbeat CPU 0 instructions: 160000004 cycles: 50903397 heartbeat IPC: 3.14362 cumulative IPC: 3.14321 (Simulation time: 0 hr 8 min 6 sec) 
Heartbeat CPU 0 instructions: 170000001 cycles: 54084696 heartbeat IPC: 3.14337 cumulative IPC: 3.14322 (Simulation time: 0 hr 8 min 37 sec) 
Heartbeat CPU 0 instructions: 180000004 cycles: 57266013 heartbeat IPC: 3.14335 cumulative IPC: 3.14323 (Simulation time: 0 hr 9 min 7 sec) 
Heartbeat CPU 0 instructions: 190000001 cycles: 60447281 heartbeat IPC: 3.1434 cumulative IPC: 3.14323 (Simulation time: 0 hr 9 min 37 sec) 
Heartbeat CPU 0 instructions: 200000002 cycles: 63628609 heartbeat IPC: 3.14334 cumulative IPC: 3.14324 (Simulation time: 0 hr 10 min 8 sec) 

Warmup complete CPU 0 instructions: 200000002 cycles: 63628609 (Simulation time: 0 hr 10 min 8 sec) 

Heartbeat CPU 0 instructions: 210000000 cycles: 69362072 heartbeat IPC: 1.74415 cumulative IPC: 1.74415 (Simulation time: 0 hr 10 min 46 sec) 
Heartbeat CPU 0 instructions: 220000003 cycles: 75144494 heartbeat IPC: 1.72938 cumulative IPC: 1.73673 (Simulation time: 0 hr 11 min 25 sec) 
Heartbeat CPU 0 instructions: 230000002 cycles: 80881138 heartbeat IPC: 1.74318 cumulative IPC: 1.73888 (Simulation time: 0 hr 12 min 2 sec) 
Heartbeat CPU 0 instructions: 240000002 cycles: 86614561 heartbeat IPC: 1.74416 cumulative IPC: 1.74019 (Simulation time: 0 hr 12 min 40 sec) 
Heartbeat CPU 0 instructions: 250000001 cycles: 92395653 heartbeat IPC: 1.72978 cumulative IPC: 1.7381 (Simulation time: 0 hr 13 min 18 sec) 
Heartbeat CPU 0 instructions: 260000004 cycles: 98133222 heartbeat IPC: 1.7429 cumulative IPC: 1.7389 (Simulation time: 0 hr 13 min 56 sec) 
Heartbeat CPU 0 instructions: 270000002 cycles: 103869021 heartbeat IPC: 1.74344 cumulative IPC: 1.73954 (Simulation time: 0 hr 14 min 33 sec) 
Heartbeat CPU 0 instructions: 280000000 cycles: 109674088 heartbeat IPC: 1.72263 cumulative IPC: 1.73741 (Simulation time: 0 hr 15 min 12 sec) 
Heartbeat CPU 0 instructions: 290000001 cycles: 115437363 heartbeat IPC: 1.73512 cumulative IPC: 1.73716 (Simulation time: 0 hr 15 min 50 sec) 
Heartbeat CPU 0 instructions: 300000000 cycles: 121201306 heartbeat IPC: 1.73492 cumulative IPC: 1.73693 (Simulation time: 0 hr 16 min 27 sec) 
Heartbeat CPU 0 instructions: 310000004 cycles: 126970150 heartbeat IPC: 1.73345 cumulative IPC: 1.73662 (Simulation time: 0 hr 17 min 5 sec) 
Heartbeat CPU 0 instructions: 320000000 cycles: 132860269 heartbeat IPC: 1.69776 cumulative IPC: 1.73331 (Simulation time: 0 hr 17 min 42 sec) 
Heartbeat CPU 0 instructions: 330000003 cycles: 138635826 heartbeat IPC: 1.73144 cumulative IPC: 1.73317 (Simulation time: 0 hr 18 min 20 sec) 
Heartbeat CPU 0 instructions: 340000003 cycles: 144417121 heartbeat IPC: 1.72972 cumulative IPC: 1.73292 (Simulation time: 0 hr 18 min 58 sec) 
Heartbeat CPU 0 instructions: 350000000 cycles: 150230061 heartbeat IPC: 1.7203 cumulative IPC: 1.73207 (Simulation time: 0 hr 19 min 35 sec) 
Heartbeat CPU 0 instructions: 360000004 cycles: 155984060 heartbeat IPC: 1.73792 cumulative IPC: 1.73244 (Simulation time: 0 hr 20 min 13 sec) 
Heartbeat CPU 0 instructions: 370000001 cycles: 161733511 heartbeat IPC: 1.7393 cumulative IPC: 1.73284 (Simulation time: 0 hr 20 min 51 sec) 
Heartbeat CPU 0 instructions: 380000003 cycles: 167521717 heartbeat IPC: 1.72765 cumulative IPC: 1.73255 (Simulation time: 0 hr 21 min 28 sec) 
Heartbeat CPU 0 instructions: 390000003 cycles: 173270529 heartbeat IPC: 1.73949 cumulative IPC: 1.73291 (Simulation time: 0 hr 22 min 6 sec) 
Heartbeat CPU 0 instructions: 400000001 cycles: 179015832 heartbeat IPC: 1.74055 cumulative IPC: 1.73329 (Simulation time: 0 hr 22 min 44 sec) 
Heartbeat CPU 0 instructions: 410000003 cycles: 184758447 heartbeat IPC: 1.74137 cumulative IPC: 1.73368 (Simulation time: 0 hr 23 min 21 sec) 
Heartbeat CPU 0 instructions: 420000004 cycles: 190545168 heartbeat IPC: 1.72809 cumulative IPC: 1.73342 (Simulation time: 0 hr 23 min 59 sec) 
Heartbeat CPU 0 instructions: 430000002 cycles: 196293218 heartbeat IPC: 1.73972 cumulative IPC: 1.7337 (Simulation time: 0 hr 24 min 37 sec) 
Heartbeat CPU 0 instructions: 440000001 cycles: 202036388 heartbeat IPC: 1.7412 cumulative IPC: 1.73401 (Simulation time: 0 hr 25 min 14 sec) 
Heartbeat CPU 0 instructions: 450000000 cycles: 207830968 heartbeat IPC: 1.72575 cumulative IPC: 1.73367 (Simulation time: 0 hr 25 min 52 sec) 
Heartbeat CPU 0 instructions: 460000000 cycles: 213583428 heartbeat IPC: 1.73839 cumulative IPC: 1.73386 (Simulation time: 0 hr 26 min 30 sec) 
Heartbeat CPU 0 instructions: 470000002 cycles: 219329564 heartbeat IPC: 1.7403 cumulative IPC: 1.73409 (Simulation time: 0 hr 27 min 8 sec) 
Heartbeat CPU 0 instructions: 480000001 cycles: 225122213 heartbeat IPC: 1.72633 cumulative IPC: 1.73381 (Simulation time: 0 hr 27 min 46 sec) 
Heartbeat CPU 0 instructions: 490000004 cycles: 230872697 heartbeat IPC: 1.73898 cumulative IPC: 1.73399 (Simulation time: 0 hr 28 min 23 sec) 
Heartbeat CPU 0 instructions: 500000002 cycles: 237029747 heartbeat IPC: 1.62415 cumulative IPC: 1.73009 (Simulation time: 0 hr 29 min 6 sec) 
Heartbeat CPU 0 instructions: 510000000 cycles: 246017216 heartbeat IPC: 1.11266 cumulative IPC: 1.69967 (Simulation time: 0 hr 29 min 51 sec) 
Heartbeat CPU 0 instructions: 520000000 cycles: 255382245 heartbeat IPC: 1.0678 cumulative IPC: 1.66881 (Simulation time: 0 hr 30 min 37 sec) 
Heartbeat CPU 0 instructions: 530000003 cycles: 264729535 heartbeat IPC: 1.06983 cumulative IPC: 1.64097 (Simulation time: 0 hr 31 min 23 sec) 
Heartbeat CPU 0 instructions: 540000002 cycles: 274088698 heartbeat IPC: 1.06847 cumulative IPC: 1.61551 (Simulation time: 0 hr 32 min 8 sec) 
Heartbeat CPU 0 instructions: 550000000 cycles: 283441809 heartbeat IPC: 1.06916 cumulative IPC: 1.59226 (Simulation time: 0 hr 32 min 53 sec) 
Heartbeat CPU 0 instructions: 560000000 cycles: 292796353 heartbeat IPC: 1.069 cumulative IPC: 1.5709 (Simulation time: 0 hr 33 min 38 sec) 
Heartbeat CPU 0 instructions: 570000000 cycles: 302154093 heartbeat IPC: 1.06863 cumulative IPC: 1.5512 (Simulation time: 0 hr 34 min 23 sec) 
Heartbeat CPU 0 instructions: 580000000 cycles: 311504187 heartbeat IPC: 1.06951 cumulative IPC: 1.53303 (Simulation time: 0 hr 35 min 8 sec) 
Heartbeat CPU 0 instructions: 590000001 cycles: 320858313 heartbeat IPC: 1.06905 cumulative IPC: 1.51615 (Simulation time: 0 hr 35 min 53 sec) 
Heartbeat CPU 0 instructions: 600000000 cycles: 330192721 heartbeat IPC: 1.07131 cumulative IPC: 1.50058 (Simulation time: 0 hr 36 min 38 sec) 
Heartbeat CPU 0 instructions: 610000003 cycles: 339551310 heartbeat IPC: 1.06854 cumulative IPC: 1.48592 (Simulation time: 0 hr 37 min 24 sec) 
Heartbeat CPU 0 instructions: 620000000 cycles: 348884465 heartbeat IPC: 1.07145 cumulative IPC: 1.47236 (Simulation time: 0 hr 38 min 10 sec) 
Heartbeat CPU 0 instructions: 630000003 cycles: 358243023 heartbeat IPC: 1.06854 cumulative IPC: 1.45953 (Simulation time: 0 hr 38 min 55 sec) 
Heartbeat CPU 0 instructions: 640000001 cycles: 367577046 heartbeat IPC: 1.07135 cumulative IPC: 1.44761 (Simulation time: 0 hr 39 min 40 sec) 
Heartbeat CPU 0 instructions: 650000003 cycles: 376929648 heartbeat IPC: 1.06922 cumulative IPC: 1.43632 (Simulation time: 0 hr 40 min 25 sec) 
Heartbeat CPU 0 instructions: 660000000 cycles: 386268556 heartbeat IPC: 1.07079 cumulative IPC: 1.42574 (Simulation time: 0 hr 41 min 10 sec) 
Heartbeat CPU 0 instructions: 670000001 cycles: 396658521 heartbeat IPC: 0.962467 cumulative IPC: 1.41128 (Simulation time: 0 hr 42 min 1 sec) 
Heartbeat CPU 0 instructions: 680000001 cycles: 400077347 heartbeat IPC: 2.92498 cumulative IPC: 1.42667 (Simulation time: 0 hr 42 min 26 sec) 
Heartbeat CPU 0 instructions: 690000001 cycles: 406129898 heartbeat IPC: 1.6522 cumulative IPC: 1.43065 (Simulation time: 0 hr 42 min 58 sec) 
Heartbeat CPU 0 instructions: 700000003 cycles: 412259880 heartbeat IPC: 1.63133 cumulative IPC: 1.43418 (Simulation time: 0 hr 43 min 27 sec) 
Finished CPU 0 instructions: 500000001 cycles: 348631271 cumulative IPC: 1.43418 (Simulation time: 0 hr 43 min 27 sec) 

ChampSim completed all CPUs

Region of Interest Statistics

CPU 0 cumulative IPC: 1.43418 instructions: 500000001 cycles: 348631271
cpu0_L1I TOTAL     ACCESS:   43969700  HIT:   43966985  MISS:       2715
cpu0_L1I LOAD      ACCESS:   43969700  HIT:   43966985  MISS:       2715
cpu0_L1I RFO       ACCESS:          0  HIT:          0  MISS:          0
cpu0_L1I PREFETCH  ACCESS:          0  HIT:          0  MISS:          0
cpu0_L1I WRITEBACK ACCESS:          0  HIT:          0  MISS:          0
cpu0_L1I TRANSLATION ACCESS:          0  HIT:          0  MISS:          0
cpu0_L1I PREFETCH  REQUESTED:          0  ISSUED:          0  USEFUL:          0  USELESS:          0
cpu0_L1I AVERAGE MISS LATENCY: 127.231 cycles
cpu0_DTLB TOTAL     ACCESS:  100305469  HIT:  100269918  MISS:      35551
cpu0_DTLB LOAD      ACCESS:   67143371  HIT:   67113406  MISS:      29965
cpu0_DTLB RFO       ACCESS:   33162098  HIT:   33156512  MISS:       5586
cpu0_DTLB PREFETCH  ACCESS:          0  HIT:          0  MISS:          0
cpu0_DTLB WRITEBACK ACCESS:          0  HIT:          0  MISS:          0
cpu0_DTLB TRANSLATION ACCESS:          0  HIT:          0  MISS:          0
cpu0_DTLB PREFETCH  REQUESTED:          0  ISSUED:          0  USEFUL:          0  USELESS:          0
cpu0_DTLB AVERAGE MISS LATENCY: 219.397 cycles
cpu0_ITLB TOTAL     ACCESS:   23572537  HIT:   23572415  MISS:        122
cpu0_ITLB LOAD      ACCESS:   23572537  HIT:   23572415  MISS:        122
cpu0_ITLB RFO       ACCESS:          0  HIT:          0  MISS:          0
cpu0_ITLB PREFETCH  ACCESS:          0  HIT:          0  MISS:          0
cpu0_ITLB WRITEBACK ACCESS:          0  HIT:          0  MISS:          0
cpu0_ITLB TRANSLATION ACCESS:          0  HIT:          0  MISS:          0
cpu0_ITLB PREFETCH  REQUESTED:          0  ISSUED:          0  USEFUL:          0  USELESS:          0
cpu0_ITLB AVERAGE MISS LATENCY: 232.656 cycles
cpu0_STLB TOTAL     ACCESS:      35673  HIT:      22748  MISS:      12925
cpu0_STLB LOAD      ACCESS:      30087  HIT:      19413  MISS:      10674
cpu0_STLB RFO       ACCESS:       5586  HIT:       3335  MISS:       2251
cpu0_STLB PREFETCH  ACCESS:          0  HIT:          0  MISS:          0
cpu0_STLB WRITEBACK ACCESS:          0  HIT:          0  MISS:          0
cpu0_STLB TRANSLATION ACCESS:          0  HIT:          0  MISS:          0
cpu0_STLB PREFETCH  REQUESTED:          0  ISSUED:          0  USEFUL:          0  USELESS:          0
cpu0_STLB AVERAGE MISS LATENCY: 580.811 cycles
cpu0_L1D TOTAL     ACCESS:  141184901  HIT:  140439012  MISS:     745889
cpu0_L1D LOAD      ACCESS:   79890189  HIT:   79283857  MISS:     606332
cpu0_L1D RFO       ACCESS:   61283799  HIT:   61144280  MISS:     139519
cpu0_L1D PREFETCH  ACCESS:          0  HIT:          0  MISS:          0
cpu0_L1D WRITEBACK ACCESS:          0  HIT:          0  MISS:          0
cpu0_L1D TRANSLATION ACCESS:      10913  HIT:      10875  MISS:         38
cpu0_L1D PREFETCH  REQUESTED:          0  ISSUED:          0  USEFUL:          0  USELESS:          0
cpu0_L1D AVERAGE MISS LATENCY: 160.333 cycles
cpu0_L2C TOTAL     ACCESS:    1093014  HIT:     478300  MISS:     614714
cpu0_L2C LOAD      ACCESS:     609047  HIT:     133671  MISS:     475376
cpu0_L2C RFO       ACCESS:     139519  HIT:        198  MISS:     139321
cpu0_L2C PREFETCH  ACCESS:          0  HIT:          0  MISS:          0
cpu0_L2C WRITEBACK ACCESS:     344410  HIT:     344410  MISS:          0
cpu0_L2C TRANSLATION ACCESS:         38  HIT:         21  MISS:         17
cpu0_L2C PREFETCH  REQUESTED:          0  ISSUED:          0  USEFUL:          0  USELESS:          0
cpu0_L2C AVERAGE MISS LATENCY: 181.702 cycles
LLC TOTAL     ACCESS:     995571  HIT:     343251  MISS:     652320
LLC LOAD      ACCESS:     475376  HIT:     315593  MISS:     159783
LLC RFO       ACCESS:     139321  HIT:        489  MISS:     138832
LLC PREFETCH  ACCESS:     377300  HIT:      27169  MISS:     350131
LLC WRITEBACK ACCESS:       3557  HIT:          0  MISS:       3557
LLC TRANSLATION ACCESS:         17  HIT:          0  MISS:         17
LLC PREFETCH  REQUESTED:     475376  ISSUED:     475376  USEFUL:     408315  USELESS:      34535
LLC AVERAGE MISS LATENCY: 335.929 cycles

DRAM Statistics
 CHANNEL 0
 RQ ROW_BUFFER_HIT:      57814  ROW_BUFFER_MISS:     590949
 DBUS AVG_CONGESTED_CYCLE:    3.75494
 WQ ROW_BUFFER_HIT:       1502  ROW_BUFFER_MISS:       1205  FULL:          0


CPU 0 Branch Prediction Accuracy: 97.0158% MPKI: 3.75631 Average ROB Occupancy at Mispredict: 116.681
Branch type MPKI
BRANCH_DIRECT_JUMP: 0.000656
BRANCH_INDIRECT: 0.000646
BRANCH_CONDITIONAL: 3.75204
BRANCH_DIRECT_CALL: 0.001792
BRANCH_INDIRECT_CALL: 7.8e-05
BRANCH_RETURN: 0.001104

