/home/caslab/workspace/sim/ChampSim/bin/champsim --warmup_instructions 200000000 --simulation_instructions 500000000/ /home/caslab/workspace/sim/traces/speccpu_by_champsim482.sphinx3-234B.champsimtrace.xz
start simulation for 482.sphinx3-234B.champsimtrace.xz

*** ChampSim Multicore Out-of-Order Simulator ***

Warmup Instructions: 200000000
Simulation Instructions: 500000000
Number of CPUs: 1
Off-chip DRAM Size: 4 GiB Channels: 1 Width: 64-bit Data Rate: 3200 MT/s

VirtualMemory physical capacity: 8588881920 num_ppages: 2096895
VirtualMemory page size: 4096 log2_page_size: 12

CPU 0 runs /home/caslab/workspace/sim/traces/speccpu_by_champsim/482.sphinx3-234B.champsimtrace.xz
CPU 0 Bimodal branch predictor
Basic BTB sets: 1024 ways: 8 indirect buffer size: 4096 RAS size: 64
LLC next line prefetcher
WARNING: The extended signature CACHE::prefetch_line(ip, base_addr, pf_addr, fill_this_level, prefetch_metadata) is deprecated.
WARNING: Use CACHE::prefetch_line(pf_addr, fill_this_level, prefetch_metadata) instead.
Heartbeat CPU 0 instructions: 10000002 cycles: 2599925 heartbeat IPC: 3.84627 cumulative IPC: 3.84627 (Simulation time: 0 hr 0 min 23 sec) 
Heartbeat CPU 0 instructions: 20000001 cycles: 5199678 heartbeat IPC: 3.84652 cumulative IPC: 3.84639 (Simulation time: 0 hr 0 min 46 sec) 
Heartbeat CPU 0 instructions: 30000000 cycles: 7832483 heartbeat IPC: 3.79823 cumulative IPC: 3.8302 (Simulation time: 0 hr 1 min 9 sec) 
Heartbeat CPU 0 instructions: 40000003 cycles: 10433828 heartbeat IPC: 3.84417 cumulative IPC: 3.83368 (Simulation time: 0 hr 1 min 31 sec) 
Heartbeat CPU 0 instructions: 50000002 cycles: 13012127 heartbeat IPC: 3.87853 cumulative IPC: 3.84257 (Simulation time: 0 hr 1 min 53 sec) 
Heartbeat CPU 0 instructions: 60000003 cycles: 15617009 heartbeat IPC: 3.83895 cumulative IPC: 3.84196 (Simulation time: 0 hr 2 min 15 sec) 
Heartbeat CPU 0 instructions: 70000000 cycles: 18183655 heartbeat IPC: 3.89613 cumulative IPC: 3.84961 (Simulation time: 0 hr 2 min 36 sec) 
Heartbeat CPU 0 instructions: 80000004 cycles: 20771472 heartbeat IPC: 3.86426 cumulative IPC: 3.85144 (Simulation time: 0 hr 2 min 58 sec) 
Heartbeat CPU 0 instructions: 90000003 cycles: 23365008 heartbeat IPC: 3.85574 cumulative IPC: 3.85191 (Simulation time: 0 hr 3 min 20 sec) 
Heartbeat CPU 0 instructions: 100000000 cycles: 25944750 heartbeat IPC: 3.87636 cumulative IPC: 3.85434 (Simulation time: 0 hr 3 min 42 sec) 
Heartbeat CPU 0 instructions: 110000000 cycles: 28545207 heartbeat IPC: 3.84548 cumulative IPC: 3.85354 (Simulation time: 0 hr 4 min 4 sec) 
Heartbeat CPU 0 instructions: 120000001 cycles: 31151602 heartbeat IPC: 3.83672 cumulative IPC: 3.85213 (Simulation time: 0 hr 4 min 26 sec) 
Heartbeat CPU 0 instructions: 130000002 cycles: 33762092 heartbeat IPC: 3.8307 cumulative IPC: 3.85047 (Simulation time: 0 hr 4 min 48 sec) 
Heartbeat CPU 0 instructions: 140000004 cycles: 36336357 heartbeat IPC: 3.8846 cumulative IPC: 3.85289 (Simulation time: 0 hr 5 min 10 sec) 
Heartbeat CPU 0 instructions: 150000003 cycles: 38926629 heartbeat IPC: 3.8606 cumulative IPC: 3.8534 (Simulation time: 0 hr 5 min 32 sec) 
Heartbeat CPU 0 instructions: 160000000 cycles: 41518995 heartbeat IPC: 3.85748 cumulative IPC: 3.85366 (Simulation time: 0 hr 5 min 55 sec) 
Heartbeat CPU 0 instructions: 170000003 cycles: 44126266 heartbeat IPC: 3.83543 cumulative IPC: 3.85258 (Simulation time: 0 hr 6 min 18 sec) 
Heartbeat CPU 0 instructions: 180000000 cycles: 46737440 heartbeat IPC: 3.82969 cumulative IPC: 3.8513 (Simulation time: 0 hr 6 min 40 sec) 
Heartbeat CPU 0 instructions: 190000002 cycles: 49327943 heartbeat IPC: 3.86026 cumulative IPC: 3.85177 (Simulation time: 0 hr 7 min 2 sec) 
Heartbeat CPU 0 instructions: 200000001 cycles: 51915548 heartbeat IPC: 3.86458 cumulative IPC: 3.85241 (Simulation time: 0 hr 7 min 24 sec) 

Warmup complete CPU 0 instructions: 200000001 cycles: 51915548 (Simulation time: 0 hr 7 min 24 sec) 

Heartbeat CPU 0 instructions: 210000000 cycles: 56122685 heartbeat IPC: 2.37691 cumulative IPC: 2.37691 (Simulation time: 0 hr 7 min 45 sec) 
Heartbeat CPU 0 instructions: 220000003 cycles: 60314681 heartbeat IPC: 2.3855 cumulative IPC: 2.3812 (Simulation time: 0 hr 8 min 7 sec) 
Heartbeat CPU 0 instructions: 230000001 cycles: 64233400 heartbeat IPC: 2.55185 cumulative IPC: 2.43549 (Simulation time: 0 hr 8 min 27 sec) 
Heartbeat CPU 0 instructions: 240000004 cycles: 68143059 heartbeat IPC: 2.55777 cumulative IPC: 2.46495 (Simulation time: 0 hr 8 min 47 sec) 
Heartbeat CPU 0 instructions: 250000002 cycles: 72038783 heartbeat IPC: 2.56692 cumulative IPC: 2.48469 (Simulation time: 0 hr 9 min 7 sec) 
Heartbeat CPU 0 instructions: 260000002 cycles: 76306910 heartbeat IPC: 2.34295 cumulative IPC: 2.45989 (Simulation time: 0 hr 9 min 28 sec) 
Heartbeat CPU 0 instructions: 270000003 cycles: 80450688 heartbeat IPC: 2.41326 cumulative IPC: 2.45312 (Simulation time: 0 hr 9 min 49 sec) 
Heartbeat CPU 0 instructions: 280000000 cycles: 84540933 heartbeat IPC: 2.44484 cumulative IPC: 2.45208 (Simulation time: 0 hr 10 min 9 sec) 
Heartbeat CPU 0 instructions: 290000001 cycles: 88604348 heartbeat IPC: 2.46098 cumulative IPC: 2.45306 (Simulation time: 0 hr 10 min 30 sec) 
Heartbeat CPU 0 instructions: 300000003 cycles: 92828700 heartbeat IPC: 2.36723 cumulative IPC: 2.4442 (Simulation time: 0 hr 10 min 52 sec) 
Heartbeat CPU 0 instructions: 310000001 cycles: 97044938 heartbeat IPC: 2.37178 cumulative IPC: 2.43744 (Simulation time: 0 hr 11 min 13 sec) 
Heartbeat CPU 0 instructions: 320000002 cycles: 101088015 heartbeat IPC: 2.47336 cumulative IPC: 2.44039 (Simulation time: 0 hr 11 min 33 sec) 
Heartbeat CPU 0 instructions: 330000001 cycles: 105273017 heartbeat IPC: 2.38948 cumulative IPC: 2.4364 (Simulation time: 0 hr 11 min 55 sec) 
Heartbeat CPU 0 instructions: 340000000 cycles: 109514037 heartbeat IPC: 2.35792 cumulative IPC: 2.43062 (Simulation time: 0 hr 12 min 16 sec) 
Heartbeat CPU 0 instructions: 350000001 cycles: 113873792 heartbeat IPC: 2.29371 cumulative IPC: 2.42099 (Simulation time: 0 hr 12 min 38 sec) 
Heartbeat CPU 0 instructions: 360000003 cycles: 118220245 heartbeat IPC: 2.30073 cumulative IPC: 2.4131 (Simulation time: 0 hr 12 min 59 sec) 
Heartbeat CPU 0 instructions: 370000003 cycles: 122551166 heartbeat IPC: 2.30898 cumulative IPC: 2.40672 (Simulation time: 0 hr 13 min 20 sec) 
Heartbeat CPU 0 instructions: 380000000 cycles: 126834428 heartbeat IPC: 2.33467 cumulative IPC: 2.4026 (Simulation time: 0 hr 13 min 42 sec) 
Heartbeat CPU 0 instructions: 390000000 cycles: 131283915 heartbeat IPC: 2.24745 cumulative IPC: 2.3939 (Simulation time: 0 hr 14 min 3 sec) 
Heartbeat CPU 0 instructions: 400000000 cycles: 135724481 heartbeat IPC: 2.25197 cumulative IPC: 2.38638 (Simulation time: 0 hr 14 min 25 sec) 
Heartbeat CPU 0 instructions: 410000000 cycles: 140064308 heartbeat IPC: 2.30424 cumulative IPC: 2.38234 (Simulation time: 0 hr 14 min 47 sec) 
Heartbeat CPU 0 instructions: 420000001 cycles: 144722650 heartbeat IPC: 2.14669 cumulative IPC: 2.37051 (Simulation time: 0 hr 15 min 9 sec) 
Heartbeat CPU 0 instructions: 430000000 cycles: 149251921 heartbeat IPC: 2.20786 cumulative IPC: 2.36294 (Simulation time: 0 hr 15 min 32 sec) 
Heartbeat CPU 0 instructions: 440000003 cycles: 153670833 heartbeat IPC: 2.263 cumulative IPC: 2.3586 (Simulation time: 0 hr 15 min 55 sec) 
Heartbeat CPU 0 instructions: 450000002 cycles: 158027246 heartbeat IPC: 2.29547 cumulative IPC: 2.35601 (Simulation time: 0 hr 16 min 17 sec) 
Heartbeat CPU 0 instructions: 460000001 cycles: 162446474 heartbeat IPC: 2.26284 cumulative IPC: 2.35228 (Simulation time: 0 hr 16 min 38 sec) 
Heartbeat CPU 0 instructions: 470000004 cycles: 167042266 heartbeat IPC: 2.1759 cumulative IPC: 2.34524 (Simulation time: 0 hr 17 min 0 sec) 
Heartbeat CPU 0 instructions: 480000000 cycles: 171227436 heartbeat IPC: 2.38939 cumulative IPC: 2.34679 (Simulation time: 0 hr 17 min 21 sec) 
Heartbeat CPU 0 instructions: 490000002 cycles: 175787910 heartbeat IPC: 2.19275 cumulative IPC: 2.34112 (Simulation time: 0 hr 17 min 43 sec) 
Heartbeat CPU 0 instructions: 500000000 cycles: 180380491 heartbeat IPC: 2.17742 cumulative IPC: 2.33527 (Simulation time: 0 hr 18 min 6 sec) 
Heartbeat CPU 0 instructions: 510000004 cycles: 184727076 heartbeat IPC: 2.30066 cumulative IPC: 2.33413 (Simulation time: 0 hr 18 min 28 sec) 
Heartbeat CPU 0 instructions: 520000004 cycles: 189218413 heartbeat IPC: 2.22651 cumulative IPC: 2.33061 (Simulation time: 0 hr 18 min 49 sec) 
Heartbeat CPU 0 instructions: 530000001 cycles: 193813793 heartbeat IPC: 2.1761 cumulative IPC: 2.32561 (Simulation time: 0 hr 19 min 11 sec) 
Heartbeat CPU 0 instructions: 540000003 cycles: 198048796 heartbeat IPC: 2.36127 cumulative IPC: 2.32664 (Simulation time: 0 hr 19 min 34 sec) 
Heartbeat CPU 0 instructions: 550000000 cycles: 202580466 heartbeat IPC: 2.20669 cumulative IPC: 2.32304 (Simulation time: 0 hr 19 min 56 sec) 
Heartbeat CPU 0 instructions: 560000001 cycles: 207253959 heartbeat IPC: 2.13973 cumulative IPC: 2.31752 (Simulation time: 0 hr 20 min 18 sec) 
Heartbeat CPU 0 instructions: 570000000 cycles: 211503585 heartbeat IPC: 2.35315 cumulative IPC: 2.31847 (Simulation time: 0 hr 20 min 40 sec) 
Heartbeat CPU 0 instructions: 580000001 cycles: 216067537 heartbeat IPC: 2.19108 cumulative IPC: 2.31493 (Simulation time: 0 hr 21 min 1 sec) 
Heartbeat CPU 0 instructions: 590000001 cycles: 220783843 heartbeat IPC: 2.1203 cumulative IPC: 2.30949 (Simulation time: 0 hr 21 min 23 sec) 
Heartbeat CPU 0 instructions: 600000004 cycles: 224945114 heartbeat IPC: 2.40311 cumulative IPC: 2.31174 (Simulation time: 0 hr 21 min 45 sec) 
Heartbeat CPU 0 instructions: 610000002 cycles: 229514212 heartbeat IPC: 2.18862 cumulative IPC: 2.30858 (Simulation time: 0 hr 22 min 7 sec) 
Heartbeat CPU 0 instructions: 620000004 cycles: 233859146 heartbeat IPC: 2.30153 cumulative IPC: 2.30841 (Simulation time: 0 hr 22 min 29 sec) 
Heartbeat CPU 0 instructions: 630000000 cycles: 238321326 heartbeat IPC: 2.24106 cumulative IPC: 2.3068 (Simulation time: 0 hr 22 min 50 sec) 
Heartbeat CPU 0 instructions: 640000004 cycles: 242781739 heartbeat IPC: 2.24195 cumulative IPC: 2.30528 (Simulation time: 0 hr 23 min 11 sec) 
Heartbeat CPU 0 instructions: 650000002 cycles: 247129922 heartbeat IPC: 2.29981 cumulative IPC: 2.30516 (Simulation time: 0 hr 23 min 33 sec) 
Heartbeat CPU 0 instructions: 660000001 cycles: 251543175 heartbeat IPC: 2.2659 cumulative IPC: 2.30429 (Simulation time: 0 hr 23 min 55 sec) 
Heartbeat CPU 0 instructions: 670000001 cycles: 255943565 heartbeat IPC: 2.27253 cumulative IPC: 2.30361 (Simulation time: 0 hr 24 min 17 sec) 
Heartbeat CPU 0 instructions: 680000003 cycles: 260462416 heartbeat IPC: 2.21295 cumulative IPC: 2.30164 (Simulation time: 0 hr 24 min 39 sec) 
Heartbeat CPU 0 instructions: 690000001 cycles: 264641651 heartbeat IPC: 2.39278 cumulative IPC: 2.30343 (Simulation time: 0 hr 25 min 1 sec) 
Heartbeat CPU 0 instructions: 700000002 cycles: 268982689 heartbeat IPC: 2.3036 cumulative IPC: 2.30343 (Simulation time: 0 hr 25 min 22 sec) 
Finished CPU 0 instructions: 500000001 cycles: 217067141 cumulative IPC: 2.30343 (Simulation time: 0 hr 25 min 22 sec) 

ChampSim completed all CPUs

Region of Interest Statistics

CPU 0 cumulative IPC: 2.30343 instructions: 500000001 cycles: 217067141
cpu0_L1I TOTAL     ACCESS:     532909  HIT:     532905  MISS:          4
cpu0_L1I LOAD      ACCESS:     532909  HIT:     532905  MISS:          4
cpu0_L1I RFO       ACCESS:          0  HIT:          0  MISS:          0
cpu0_L1I PREFETCH  ACCESS:          0  HIT:          0  MISS:          0
cpu0_L1I WRITEBACK ACCESS:          0  HIT:          0  MISS:          0
cpu0_L1I TRANSLATION ACCESS:          0  HIT:          0  MISS:          0
cpu0_L1I PREFETCH  REQUESTED:          0  ISSUED:          0  USEFUL:          0  USELESS:          0
cpu0_L1I AVERAGE MISS LATENCY: 169.75 cycles
cpu0_DTLB TOTAL     ACCESS:   89902411  HIT:   89721806  MISS:     180605
cpu0_DTLB LOAD      ACCESS:   84239420  HIT:   84064124  MISS:     175296
cpu0_DTLB RFO       ACCESS:    5662991  HIT:    5657682  MISS:       5309
cpu0_DTLB PREFETCH  ACCESS:          0  HIT:          0  MISS:          0
cpu0_DTLB WRITEBACK ACCESS:          0  HIT:          0  MISS:          0
cpu0_DTLB TRANSLATION ACCESS:          0  HIT:          0  MISS:          0
cpu0_DTLB PREFETCH  REQUESTED:          0  ISSUED:          0  USEFUL:          0  USELESS:          0
cpu0_DTLB AVERAGE MISS LATENCY: 9.32996 cycles
cpu0_ITLB TOTAL     ACCESS:   45626055  HIT:   45626055  MISS:          0
cpu0_ITLB LOAD      ACCESS:   45626055  HIT:   45626055  MISS:          0
cpu0_ITLB RFO       ACCESS:          0  HIT:          0  MISS:          0
cpu0_ITLB PREFETCH  ACCESS:          0  HIT:          0  MISS:          0
cpu0_ITLB WRITEBACK ACCESS:          0  HIT:          0  MISS:          0
cpu0_ITLB TRANSLATION ACCESS:          0  HIT:          0  MISS:          0
cpu0_ITLB PREFETCH  REQUESTED:          0  ISSUED:          0  USEFUL:          0  USELESS:          0
cpu0_ITLB AVERAGE MISS LATENCY: -nan cycles
cpu0_STLB TOTAL     ACCESS:     180605  HIT:     180319  MISS:        286
cpu0_STLB LOAD      ACCESS:     175296  HIT:     175022  MISS:        274
cpu0_STLB RFO       ACCESS:       5309  HIT:       5297  MISS:         12
cpu0_STLB PREFETCH  ACCESS:          0  HIT:          0  MISS:          0
cpu0_STLB WRITEBACK ACCESS:          0  HIT:          0  MISS:          0
cpu0_STLB TRANSLATION ACCESS:          0  HIT:          0  MISS:          0
cpu0_STLB PREFETCH  REQUESTED:          0  ISSUED:          0  USEFUL:          0  USELESS:          0
cpu0_STLB AVERAGE MISS LATENCY: 196.836 cycles
cpu0_L1D TOTAL     ACCESS:   70088467  HIT:   64599454  MISS:    5489013
cpu0_L1D LOAD      ACCESS:   60361913  HIT:   55010517  MISS:    5351396
cpu0_L1D RFO       ACCESS:    9726269  HIT:    9588700  MISS:     137569
cpu0_L1D PREFETCH  ACCESS:          0  HIT:          0  MISS:          0
cpu0_L1D WRITEBACK ACCESS:          0  HIT:          0  MISS:          0
cpu0_L1D TRANSLATION ACCESS:        285  HIT:        237  MISS:         48
cpu0_L1D PREFETCH  REQUESTED:          0  ISSUED:          0  USEFUL:          0  USELESS:          0
cpu0_L1D AVERAGE MISS LATENCY: 11.9316 cycles
cpu0_L2C TOTAL     ACCESS:    5797255  HIT:    5767118  MISS:      30137
cpu0_L2C LOAD      ACCESS:    5351400  HIT:    5322023  MISS:      29377
cpu0_L2C RFO       ACCESS:     137569  HIT:     136809  MISS:        760
cpu0_L2C PREFETCH  ACCESS:          0  HIT:          0  MISS:          0
cpu0_L2C WRITEBACK ACCESS:     308238  HIT:     308238  MISS:          0
cpu0_L2C TRANSLATION ACCESS:         48  HIT:         48  MISS:          0
cpu0_L2C PREFETCH  REQUESTED:          0  ISSUED:          0  USEFUL:          0  USELESS:          0
cpu0_L2C AVERAGE MISS LATENCY: 166.35 cycles
LLC TOTAL     ACCESS:      44421  HIT:      10298  MISS:      34123
LLC LOAD      ACCESS:      29377  HIT:       8607  MISS:      20770
LLC RFO       ACCESS:        760  HIT:         19  MISS:        741
LLC PREFETCH  ACCESS:      14284  HIT:       1672  MISS:      12612
LLC WRITEBACK ACCESS:          0  HIT:          0  MISS:          0
LLC TRANSLATION ACCESS:          0  HIT:          0  MISS:          0
LLC PREFETCH  REQUESTED:      29377  ISSUED:      29377  USEFUL:      22299  USELESS:       5372
LLC AVERAGE MISS LATENCY: 158.754 cycles

DRAM Statistics
 CHANNEL 0
 RQ ROW_BUFFER_HIT:       1570  ROW_BUFFER_MISS:      32553
 DBUS AVG_CONGESTED_CYCLE:    3.95038
 WQ ROW_BUFFER_HIT:          0  ROW_BUFFER_MISS:          0  FULL:          0


CPU 0 Branch Prediction Accuracy: 93.0008% MPKI: 6.69911 Average ROB Occupancy at Mispredict: 142.439
Branch type MPKI
BRANCH_DIRECT_JUMP: 4e-06
BRANCH_INDIRECT: 0
BRANCH_CONDITIONAL: 6.6991
BRANCH_DIRECT_CALL: 2e-06
BRANCH_INDIRECT_CALL: 0
BRANCH_RETURN: 2e-06

