/home/caslab/workspace/sim/ChampSim/bin/champsim --warmup_instructions 200000000 --simulation_instructions 500000000/ /home/caslab/workspace/sim/traces/speccpu_by_champsim482.sphinx3-417B.champsimtrace.xz
start simulation for 482.sphinx3-417B.champsimtrace.xz

*** ChampSim Multicore Out-of-Order Simulator ***

Warmup Instructions: 200000000
Simulation Instructions: 500000000
Number of CPUs: 1
Off-chip DRAM Size: 4 GiB Channels: 1 Width: 64-bit Data Rate: 3200 MT/s

VirtualMemory physical capacity: 8588881920 num_ppages: 2096895
VirtualMemory page size: 4096 log2_page_size: 12

CPU 0 runs /home/caslab/workspace/sim/traces/speccpu_by_champsim/482.sphinx3-417B.champsimtrace.xz
CPU 0 Bimodal branch predictor
Basic BTB sets: 1024 ways: 8 indirect buffer size: 4096 RAS size: 64
LLC next line prefetcher
WARNING: The extended signature CACHE::prefetch_line(ip, base_addr, pf_addr, fill_this_level, prefetch_metadata) is deprecated.
WARNING: Use CACHE::prefetch_line(pf_addr, fill_this_level, prefetch_metadata) instead.
Heartbeat CPU 0 instructions: 10000000 cycles: 2634094 heartbeat IPC: 3.79637 cumulative IPC: 3.79637 (Simulation time: 0 hr 0 min 22 sec) 
Heartbeat CPU 0 instructions: 20000000 cycles: 5245252 heartbeat IPC: 3.82972 cumulative IPC: 3.81297 (Simulation time: 0 hr 0 min 43 sec) 
Heartbeat CPU 0 instructions: 30000001 cycles: 7847731 heartbeat IPC: 3.84249 cumulative IPC: 3.82276 (Simulation time: 0 hr 1 min 4 sec) 
Heartbeat CPU 0 instructions: 40000000 cycles: 10440216 heartbeat IPC: 3.8573 cumulative IPC: 3.83134 (Simulation time: 0 hr 1 min 25 sec) 
Heartbeat CPU 0 instructions: 50000002 cycles: 13038280 heartbeat IPC: 3.84902 cumulative IPC: 3.83486 (Simulation time: 0 hr 1 min 46 sec) 
Heartbeat CPU 0 instructions: 60000003 cycles: 15634009 heartbeat IPC: 3.85248 cumulative IPC: 3.83779 (Simulation time: 0 hr 2 min 8 sec) 
Heartbeat CPU 0 instructions: 70000004 cycles: 18279028 heartbeat IPC: 3.78069 cumulative IPC: 3.82953 (Simulation time: 0 hr 2 min 30 sec) 
Heartbeat CPU 0 instructions: 80000002 cycles: 20901413 heartbeat IPC: 3.81332 cumulative IPC: 3.82749 (Simulation time: 0 hr 2 min 52 sec) 
Heartbeat CPU 0 instructions: 90000002 cycles: 23535435 heartbeat IPC: 3.79648 cumulative IPC: 3.82402 (Simulation time: 0 hr 3 min 15 sec) 
Heartbeat CPU 0 instructions: 100000000 cycles: 26137623 heartbeat IPC: 3.84292 cumulative IPC: 3.8259 (Simulation time: 0 hr 3 min 36 sec) 
Heartbeat CPU 0 instructions: 110000002 cycles: 28771157 heartbeat IPC: 3.79718 cumulative IPC: 3.82327 (Simulation time: 0 hr 3 min 59 sec) 
Heartbeat CPU 0 instructions: 120000003 cycles: 31397148 heartbeat IPC: 3.80809 cumulative IPC: 3.822 (Simulation time: 0 hr 4 min 21 sec) 
Heartbeat CPU 0 instructions: 130000000 cycles: 34041338 heartbeat IPC: 3.78188 cumulative IPC: 3.81889 (Simulation time: 0 hr 4 min 44 sec) 
Heartbeat CPU 0 instructions: 140000002 cycles: 36655963 heartbeat IPC: 3.82464 cumulative IPC: 3.8193 (Simulation time: 0 hr 5 min 6 sec) 
Heartbeat CPU 0 instructions: 150000000 cycles: 39257279 heartbeat IPC: 3.84421 cumulative IPC: 3.82095 (Simulation time: 0 hr 5 min 28 sec) 
Heartbeat CPU 0 instructions: 160000003 cycles: 41884818 heartbeat IPC: 3.80584 cumulative IPC: 3.82 (Simulation time: 0 hr 5 min 50 sec) 
Heartbeat CPU 0 instructions: 170000000 cycles: 44505326 heartbeat IPC: 3.81605 cumulative IPC: 3.81977 (Simulation time: 0 hr 6 min 12 sec) 
Heartbeat CPU 0 instructions: 180000001 cycles: 47126294 heartbeat IPC: 3.81538 cumulative IPC: 3.81952 (Simulation time: 0 hr 6 min 33 sec) 
Heartbeat CPU 0 instructions: 190000001 cycles: 49739733 heartbeat IPC: 3.82638 cumulative IPC: 3.81988 (Simulation time: 0 hr 6 min 55 sec) 
Heartbeat CPU 0 instructions: 200000002 cycles: 52373970 heartbeat IPC: 3.79617 cumulative IPC: 3.81869 (Simulation time: 0 hr 7 min 17 sec) 

Warmup complete CPU 0 instructions: 200000002 cycles: 52373970 (Simulation time: 0 hr 7 min 17 sec) 

Heartbeat CPU 0 instructions: 210000001 cycles: 56877085 heartbeat IPC: 2.22068 cumulative IPC: 2.22068 (Simulation time: 0 hr 7 min 38 sec) 
Heartbeat CPU 0 instructions: 220000003 cycles: 61070949 heartbeat IPC: 2.38444 cumulative IPC: 2.29965 (Simulation time: 0 hr 7 min 58 sec) 
Heartbeat CPU 0 instructions: 230000003 cycles: 65223780 heartbeat IPC: 2.408 cumulative IPC: 2.33467 (Simulation time: 0 hr 8 min 17 sec) 
Heartbeat CPU 0 instructions: 240000000 cycles: 69597829 heartbeat IPC: 2.28621 cumulative IPC: 2.32236 (Simulation time: 0 hr 8 min 38 sec) 
Heartbeat CPU 0 instructions: 250000001 cycles: 73993853 heartbeat IPC: 2.27478 cumulative IPC: 2.31269 (Simulation time: 0 hr 8 min 59 sec) 
Heartbeat CPU 0 instructions: 260000003 cycles: 78338694 heartbeat IPC: 2.30158 cumulative IPC: 2.31083 (Simulation time: 0 hr 9 min 19 sec) 
Heartbeat CPU 0 instructions: 270000003 cycles: 82491364 heartbeat IPC: 2.40809 cumulative IPC: 2.32424 (Simulation time: 0 hr 9 min 40 sec) 
Heartbeat CPU 0 instructions: 280000004 cycles: 86721836 heartbeat IPC: 2.3638 cumulative IPC: 2.32911 (Simulation time: 0 hr 10 min 0 sec) 
Heartbeat CPU 0 instructions: 290000001 cycles: 90854064 heartbeat IPC: 2.42 cumulative IPC: 2.33887 (Simulation time: 0 hr 10 min 20 sec) 
Heartbeat CPU 0 instructions: 300000000 cycles: 94885264 heartbeat IPC: 2.48065 cumulative IPC: 2.35232 (Simulation time: 0 hr 10 min 39 sec) 
Heartbeat CPU 0 instructions: 310000000 cycles: 99187860 heartbeat IPC: 2.32418 cumulative IPC: 2.34973 (Simulation time: 0 hr 11 min 0 sec) 
Heartbeat CPU 0 instructions: 320000003 cycles: 103621124 heartbeat IPC: 2.25568 cumulative IPC: 2.34159 (Simulation time: 0 hr 11 min 21 sec) 
Heartbeat CPU 0 instructions: 330000001 cycles: 107933079 heartbeat IPC: 2.31913 cumulative IPC: 2.33985 (Simulation time: 0 hr 11 min 41 sec) 
Heartbeat CPU 0 instructions: 340000004 cycles: 112128163 heartbeat IPC: 2.38374 cumulative IPC: 2.34293 (Simulation time: 0 hr 12 min 1 sec) 
Heartbeat CPU 0 instructions: 350000004 cycles: 116409486 heartbeat IPC: 2.33573 cumulative IPC: 2.34245 (Simulation time: 0 hr 12 min 22 sec) 
Heartbeat CPU 0 instructions: 360000004 cycles: 120861158 heartbeat IPC: 2.24635 cumulative IPC: 2.3362 (Simulation time: 0 hr 12 min 43 sec) 
Heartbeat CPU 0 instructions: 370000001 cycles: 125435463 heartbeat IPC: 2.18612 cumulative IPC: 2.32681 (Simulation time: 0 hr 13 min 5 sec) 
Heartbeat CPU 0 instructions: 380000004 cycles: 130205472 heartbeat IPC: 2.09643 cumulative IPC: 2.31269 (Simulation time: 0 hr 13 min 27 sec) 
Heartbeat CPU 0 instructions: 390000000 cycles: 135287678 heartbeat IPC: 1.96765 cumulative IPC: 2.29154 (Simulation time: 0 hr 13 min 50 sec) 
Heartbeat CPU 0 instructions: 400000000 cycles: 140013741 heartbeat IPC: 2.11593 cumulative IPC: 2.28207 (Simulation time: 0 hr 14 min 12 sec) 
Heartbeat CPU 0 instructions: 410000003 cycles: 144771776 heartbeat IPC: 2.10171 cumulative IPC: 2.27278 (Simulation time: 0 hr 14 min 33 sec) 
Heartbeat CPU 0 instructions: 420000000 cycles: 149921485 heartbeat IPC: 1.94186 cumulative IPC: 2.25531 (Simulation time: 0 hr 14 min 56 sec) 
Heartbeat CPU 0 instructions: 430000000 cycles: 154604330 heartbeat IPC: 2.13545 cumulative IPC: 2.24982 (Simulation time: 0 hr 15 min 18 sec) 
Heartbeat CPU 0 instructions: 440000003 cycles: 159747377 heartbeat IPC: 1.94437 cumulative IPC: 2.23519 (Simulation time: 0 hr 15 min 40 sec) 
Heartbeat CPU 0 instructions: 450000002 cycles: 164304950 heartbeat IPC: 2.19415 cumulative IPC: 2.23352 (Simulation time: 0 hr 16 min 1 sec) 
Heartbeat CPU 0 instructions: 460000002 cycles: 169311124 heartbeat IPC: 1.99753 cumulative IPC: 2.22342 (Simulation time: 0 hr 16 min 24 sec) 
Heartbeat CPU 0 instructions: 470000003 cycles: 174120713 heartbeat IPC: 2.07918 cumulative IPC: 2.21772 (Simulation time: 0 hr 16 min 46 sec) 
Heartbeat CPU 0 instructions: 480000004 cycles: 179286244 heartbeat IPC: 1.93591 cumulative IPC: 2.20625 (Simulation time: 0 hr 17 min 9 sec) 
Heartbeat CPU 0 instructions: 490000001 cycles: 183985118 heartbeat IPC: 2.12817 cumulative IPC: 2.20346 (Simulation time: 0 hr 17 min 30 sec) 
Heartbeat CPU 0 instructions: 500000002 cycles: 188986147 heartbeat IPC: 1.99959 cumulative IPC: 2.196 (Simulation time: 0 hr 17 min 52 sec) 
Heartbeat CPU 0 instructions: 510000001 cycles: 193683227 heartbeat IPC: 2.12898 cumulative IPC: 2.19377 (Simulation time: 0 hr 18 min 14 sec) 
Heartbeat CPU 0 instructions: 520000000 cycles: 198675250 heartbeat IPC: 2.0032 cumulative IPC: 2.18727 (Simulation time: 0 hr 18 min 36 sec) 
Heartbeat CPU 0 instructions: 530000002 cycles: 203297777 heartbeat IPC: 2.16332 cumulative IPC: 2.18653 (Simulation time: 0 hr 18 min 58 sec) 
Heartbeat CPU 0 instructions: 540000003 cycles: 207937700 heartbeat IPC: 2.15521 cumulative IPC: 2.1856 (Simulation time: 0 hr 19 min 19 sec) 
Heartbeat CPU 0 instructions: 550000000 cycles: 212926325 heartbeat IPC: 2.00456 cumulative IPC: 2.17997 (Simulation time: 0 hr 19 min 40 sec) 
Heartbeat CPU 0 instructions: 560000002 cycles: 217531057 heartbeat IPC: 2.17168 cumulative IPC: 2.17974 (Simulation time: 0 hr 20 min 2 sec) 
Heartbeat CPU 0 instructions: 570000003 cycles: 221323482 heartbeat IPC: 2.63684 cumulative IPC: 2.19 (Simulation time: 0 hr 20 min 21 sec) 
Heartbeat CPU 0 instructions: 580000003 cycles: 225687512 heartbeat IPC: 2.29146 cumulative IPC: 2.19256 (Simulation time: 0 hr 20 min 41 sec) 
Heartbeat CPU 0 instructions: 590000001 cycles: 230050550 heartbeat IPC: 2.29198 cumulative IPC: 2.195 (Simulation time: 0 hr 21 min 2 sec) 
Heartbeat CPU 0 instructions: 600000002 cycles: 234413891 heartbeat IPC: 2.29182 cumulative IPC: 2.19732 (Simulation time: 0 hr 21 min 23 sec) 
Heartbeat CPU 0 instructions: 610000003 cycles: 238735444 heartbeat IPC: 2.31398 cumulative IPC: 2.20003 (Simulation time: 0 hr 21 min 43 sec) 
Heartbeat CPU 0 instructions: 620000002 cycles: 243080933 heartbeat IPC: 2.30124 cumulative IPC: 2.20233 (Simulation time: 0 hr 22 min 4 sec) 
Heartbeat CPU 0 instructions: 630000002 cycles: 247266475 heartbeat IPC: 2.38918 cumulative IPC: 2.20634 (Simulation time: 0 hr 22 min 23 sec) 
Heartbeat CPU 0 instructions: 640000000 cycles: 251402835 heartbeat IPC: 2.41758 cumulative IPC: 2.21073 (Simulation time: 0 hr 22 min 43 sec) 
Heartbeat CPU 0 instructions: 650000003 cycles: 255674960 heartbeat IPC: 2.34076 cumulative IPC: 2.21347 (Simulation time: 0 hr 23 min 3 sec) 
Heartbeat CPU 0 instructions: 660000004 cycles: 259885483 heartbeat IPC: 2.375 cumulative IPC: 2.21674 (Simulation time: 0 hr 23 min 24 sec) 
Heartbeat CPU 0 instructions: 670000000 cycles: 263820703 heartbeat IPC: 2.54115 cumulative IPC: 2.22278 (Simulation time: 0 hr 23 min 43 sec) 
Heartbeat CPU 0 instructions: 680000003 cycles: 268043277 heartbeat IPC: 2.36822 cumulative IPC: 2.22563 (Simulation time: 0 hr 24 min 2 sec) 
Heartbeat CPU 0 instructions: 690000001 cycles: 272307709 heartbeat IPC: 2.34498 cumulative IPC: 2.22794 (Simulation time: 0 hr 24 min 23 sec) 
Heartbeat CPU 0 instructions: 700000000 cycles: 276761055 heartbeat IPC: 2.2455 cumulative IPC: 2.22829 (Simulation time: 0 hr 24 min 44 sec) 
Finished CPU 0 instructions: 500000003 cycles: 224387086 cumulative IPC: 2.22829 (Simulation time: 0 hr 24 min 44 sec) 

ChampSim completed all CPUs

Region of Interest Statistics

CPU 0 cumulative IPC: 2.22829 instructions: 500000003 cycles: 224387086
cpu0_L1I TOTAL     ACCESS:     681550  HIT:     681218  MISS:        332
cpu0_L1I LOAD      ACCESS:     681550  HIT:     681218  MISS:        332
cpu0_L1I RFO       ACCESS:          0  HIT:          0  MISS:          0
cpu0_L1I PREFETCH  ACCESS:          0  HIT:          0  MISS:          0
cpu0_L1I WRITEBACK ACCESS:          0  HIT:          0  MISS:          0
cpu0_L1I TRANSLATION ACCESS:          0  HIT:          0  MISS:          0
cpu0_L1I PREFETCH  REQUESTED:          0  ISSUED:          0  USEFUL:          0  USELESS:          0
cpu0_L1I AVERAGE MISS LATENCY: 123.066 cycles
cpu0_DTLB TOTAL     ACCESS:   87639729  HIT:   87289227  MISS:     350502
cpu0_DTLB LOAD      ACCESS:   80269586  HIT:   79930009  MISS:     339577
cpu0_DTLB RFO       ACCESS:    7370143  HIT:    7359218  MISS:      10925
cpu0_DTLB PREFETCH  ACCESS:          0  HIT:          0  MISS:          0
cpu0_DTLB WRITEBACK ACCESS:          0  HIT:          0  MISS:          0
cpu0_DTLB TRANSLATION ACCESS:          0  HIT:          0  MISS:          0
cpu0_DTLB PREFETCH  REQUESTED:          0  ISSUED:          0  USEFUL:          0  USELESS:          0
cpu0_DTLB AVERAGE MISS LATENCY: 9.19162 cycles
cpu0_ITLB TOTAL     ACCESS:   48806578  HIT:   48806557  MISS:         21
cpu0_ITLB LOAD      ACCESS:   48806578  HIT:   48806557  MISS:         21
cpu0_ITLB RFO       ACCESS:          0  HIT:          0  MISS:          0
cpu0_ITLB PREFETCH  ACCESS:          0  HIT:          0  MISS:          0
cpu0_ITLB WRITEBACK ACCESS:          0  HIT:          0  MISS:          0
cpu0_ITLB TRANSLATION ACCESS:          0  HIT:          0  MISS:          0
cpu0_ITLB PREFETCH  REQUESTED:          0  ISSUED:          0  USEFUL:          0  USELESS:          0
cpu0_ITLB AVERAGE MISS LATENCY: 217.524 cycles
cpu0_STLB TOTAL     ACCESS:     350523  HIT:     350209  MISS:        314
cpu0_STLB LOAD      ACCESS:     339598  HIT:     339436  MISS:        162
cpu0_STLB RFO       ACCESS:      10925  HIT:      10773  MISS:        152
cpu0_STLB PREFETCH  ACCESS:          0  HIT:          0  MISS:          0
cpu0_STLB WRITEBACK ACCESS:          0  HIT:          0  MISS:          0
cpu0_STLB TRANSLATION ACCESS:          0  HIT:          0  MISS:          0
cpu0_STLB PREFETCH  REQUESTED:          0  ISSUED:          0  USEFUL:          0  USELESS:          0
cpu0_STLB AVERAGE MISS LATENCY: 203.755 cycles
cpu0_L1D TOTAL     ACCESS:   77337799  HIT:   71850755  MISS:    5487044
cpu0_L1D LOAD      ACCESS:   63718661  HIT:   58478092  MISS:    5240569
cpu0_L1D RFO       ACCESS:   13618827  HIT:   13372413  MISS:     246414
cpu0_L1D PREFETCH  ACCESS:          0  HIT:          0  MISS:          0
cpu0_L1D WRITEBACK ACCESS:          0  HIT:          0  MISS:          0
cpu0_L1D TRANSLATION ACCESS:        311  HIT:        250  MISS:         61
cpu0_L1D PREFETCH  REQUESTED:          0  ISSUED:          0  USEFUL:          0  USELESS:          0
cpu0_L1D AVERAGE MISS LATENCY: 12.4749 cycles
cpu0_L2C TOTAL     ACCESS:    5930273  HIT:    5892305  MISS:      37968
cpu0_L2C LOAD      ACCESS:    5240901  HIT:    5212277  MISS:      28624
cpu0_L2C RFO       ACCESS:     246414  HIT:     237071  MISS:       9343
cpu0_L2C PREFETCH  ACCESS:          0  HIT:          0  MISS:          0
cpu0_L2C WRITEBACK ACCESS:     442897  HIT:     442897  MISS:          0
cpu0_L2C TRANSLATION ACCESS:         61  HIT:         60  MISS:          1
cpu0_L2C PREFETCH  REQUESTED:          0  ISSUED:          0  USEFUL:          0  USELESS:          0
cpu0_L2C AVERAGE MISS LATENCY: 211.07 cycles
LLC TOTAL     ACCESS:      53478  HIT:       7704  MISS:      45774
LLC LOAD      ACCESS:      28624  HIT:       4892  MISS:      23732
LLC RFO       ACCESS:       9343  HIT:         16  MISS:       9327
LLC PREFETCH  ACCESS:      15510  HIT:       2796  MISS:      12714
LLC WRITEBACK ACCESS:          0  HIT:          0  MISS:          0
LLC TRANSLATION ACCESS:          1  HIT:          0  MISS:          1
LLC PREFETCH  REQUESTED:      28624  ISSUED:      28624  USEFUL:      15262  USELESS:      10242
LLC AVERAGE MISS LATENCY: 186.386 cycles

DRAM Statistics
 CHANNEL 0
 RQ ROW_BUFFER_HIT:       8526  ROW_BUFFER_MISS:      37248
 DBUS AVG_CONGESTED_CYCLE:    3.96037
 WQ ROW_BUFFER_HIT:          0  ROW_BUFFER_MISS:          0  FULL:          0


CPU 0 Branch Prediction Accuracy: 91.9385% MPKI: 7.97095 Average ROB Occupancy at Mispredict: 113.477
Branch type MPKI
BRANCH_DIRECT_JUMP: 0.000132
BRANCH_INDIRECT: 0.000202
BRANCH_CONDITIONAL: 7.97006
BRANCH_DIRECT_CALL: 0.00021
BRANCH_INDIRECT_CALL: 0.000156
BRANCH_RETURN: 0.000192

