/home/caslab/workspace/sim/ChampSim/bin/champsim --warmup_instructions 200000000 --simulation_instructions 500000000/ /home/caslab/workspace/sim/traces/speccpu_by_champsim482.sphinx3-1522B.champsimtrace.xz
start simulation for 482.sphinx3-1522B.champsimtrace.xz

*** ChampSim Multicore Out-of-Order Simulator ***

Warmup Instructions: 200000000
Simulation Instructions: 500000000
Number of CPUs: 1
Off-chip DRAM Size: 4 GiB Channels: 1 Width: 64-bit Data Rate: 3200 MT/s

VirtualMemory physical capacity: 8588881920 num_ppages: 2096895
VirtualMemory page size: 4096 log2_page_size: 12

CPU 0 runs /home/caslab/workspace/sim/traces/speccpu_by_champsim/482.sphinx3-1522B.champsimtrace.xz
CPU 0 Bimodal branch predictor
Basic BTB sets: 1024 ways: 8 indirect buffer size: 4096 RAS size: 64
LLC next line prefetcher
WARNING: The extended signature CACHE::prefetch_line(ip, base_addr, pf_addr, fill_this_level, prefetch_metadata) is deprecated.
WARNING: Use CACHE::prefetch_line(pf_addr, fill_this_level, prefetch_metadata) instead.
Heartbeat CPU 0 instructions: 10000000 cycles: 2584462 heartbeat IPC: 3.86928 cumulative IPC: 3.86928 (Simulation time: 0 hr 0 min 21 sec) 
Heartbeat CPU 0 instructions: 20000001 cycles: 5205429 heartbeat IPC: 3.81539 cumulative IPC: 3.84214 (Simulation time: 0 hr 0 min 42 sec) 
Heartbeat CPU 0 instructions: 30000000 cycles: 7794025 heartbeat IPC: 3.8631 cumulative IPC: 3.8491 (Simulation time: 0 hr 1 min 3 sec) 
Heartbeat CPU 0 instructions: 40000000 cycles: 10375332 heartbeat IPC: 3.87401 cumulative IPC: 3.8553 (Simulation time: 0 hr 1 min 24 sec) 
Heartbeat CPU 0 instructions: 50000001 cycles: 12976045 heartbeat IPC: 3.8451 cumulative IPC: 3.85325 (Simulation time: 0 hr 1 min 45 sec) 
Heartbeat CPU 0 instructions: 60000002 cycles: 15554377 heartbeat IPC: 3.87848 cumulative IPC: 3.85744 (Simulation time: 0 hr 2 min 5 sec) 
Heartbeat CPU 0 instructions: 70000001 cycles: 18174843 heartbeat IPC: 3.81611 cumulative IPC: 3.85148 (Simulation time: 0 hr 2 min 27 sec) 
Heartbeat CPU 0 instructions: 80000003 cycles: 20755290 heartbeat IPC: 3.8753 cumulative IPC: 3.85444 (Simulation time: 0 hr 2 min 47 sec) 
Heartbeat CPU 0 instructions: 90000004 cycles: 23342299 heartbeat IPC: 3.86547 cumulative IPC: 3.85566 (Simulation time: 0 hr 3 min 9 sec) 
Heartbeat CPU 0 instructions: 100000002 cycles: 25929708 heartbeat IPC: 3.86487 cumulative IPC: 3.85658 (Simulation time: 0 hr 3 min 31 sec) 
Heartbeat CPU 0 instructions: 110000003 cycles: 28521136 heartbeat IPC: 3.85888 cumulative IPC: 3.85679 (Simulation time: 0 hr 3 min 52 sec) 
Heartbeat CPU 0 instructions: 120000001 cycles: 31114047 heartbeat IPC: 3.85667 cumulative IPC: 3.85678 (Simulation time: 0 hr 4 min 13 sec) 
Heartbeat CPU 0 instructions: 130000001 cycles: 33713663 heartbeat IPC: 3.84672 cumulative IPC: 3.856 (Simulation time: 0 hr 4 min 35 sec) 
Heartbeat CPU 0 instructions: 140000001 cycles: 36323829 heartbeat IPC: 3.83117 cumulative IPC: 3.85422 (Simulation time: 0 hr 4 min 56 sec) 
Heartbeat CPU 0 instructions: 150000002 cycles: 38912707 heartbeat IPC: 3.86268 cumulative IPC: 3.85478 (Simulation time: 0 hr 5 min 17 sec) 
Heartbeat CPU 0 instructions: 160000002 cycles: 41514483 heartbeat IPC: 3.84353 cumulative IPC: 3.85408 (Simulation time: 0 hr 5 min 39 sec) 
Heartbeat CPU 0 instructions: 170000003 cycles: 44107989 heartbeat IPC: 3.85578 cumulative IPC: 3.85418 (Simulation time: 0 hr 6 min 0 sec) 
Heartbeat CPU 0 instructions: 180000000 cycles: 46694113 heartbeat IPC: 3.86679 cumulative IPC: 3.85488 (Simulation time: 0 hr 6 min 21 sec) 
Heartbeat CPU 0 instructions: 190000000 cycles: 49279747 heartbeat IPC: 3.86752 cumulative IPC: 3.85554 (Simulation time: 0 hr 6 min 41 sec) 
Heartbeat CPU 0 instructions: 200000002 cycles: 51902921 heartbeat IPC: 3.81218 cumulative IPC: 3.85335 (Simulation time: 0 hr 7 min 3 sec) 

Warmup complete CPU 0 instructions: 200000002 cycles: 51902921 (Simulation time: 0 hr 7 min 3 sec) 

Heartbeat CPU 0 instructions: 210000004 cycles: 55700427 heartbeat IPC: 2.63331 cumulative IPC: 2.63331 (Simulation time: 0 hr 7 min 22 sec) 
Heartbeat CPU 0 instructions: 220000001 cycles: 59523620 heartbeat IPC: 2.61561 cumulative IPC: 2.62443 (Simulation time: 0 hr 7 min 42 sec) 
Heartbeat CPU 0 instructions: 230000003 cycles: 63384160 heartbeat IPC: 2.59031 cumulative IPC: 2.61296 (Simulation time: 0 hr 8 min 2 sec) 
Heartbeat CPU 0 instructions: 240000004 cycles: 67236738 heartbeat IPC: 2.59566 cumulative IPC: 2.60861 (Simulation time: 0 hr 8 min 21 sec) 
Heartbeat CPU 0 instructions: 250000002 cycles: 71050111 heartbeat IPC: 2.62235 cumulative IPC: 2.61135 (Simulation time: 0 hr 8 min 41 sec) 
Heartbeat CPU 0 instructions: 260000000 cycles: 74943178 heartbeat IPC: 2.56867 cumulative IPC: 2.60414 (Simulation time: 0 hr 9 min 1 sec) 
Heartbeat CPU 0 instructions: 270000001 cycles: 78695507 heartbeat IPC: 2.66501 cumulative IPC: 2.61266 (Simulation time: 0 hr 9 min 20 sec) 
Heartbeat CPU 0 instructions: 280000002 cycles: 82526145 heartbeat IPC: 2.61053 cumulative IPC: 2.6124 (Simulation time: 0 hr 9 min 40 sec) 
Heartbeat CPU 0 instructions: 290000000 cycles: 86365019 heartbeat IPC: 2.60493 cumulative IPC: 2.61156 (Simulation time: 0 hr 10 min 0 sec) 
Heartbeat CPU 0 instructions: 300000003 cycles: 90128558 heartbeat IPC: 2.65707 cumulative IPC: 2.61605 (Simulation time: 0 hr 10 min 19 sec) 
Heartbeat CPU 0 instructions: 310000004 cycles: 94039870 heartbeat IPC: 2.55669 cumulative IPC: 2.61054 (Simulation time: 0 hr 10 min 41 sec) 
Heartbeat CPU 0 instructions: 320000002 cycles: 97824367 heartbeat IPC: 2.64236 cumulative IPC: 2.61316 (Simulation time: 0 hr 11 min 0 sec) 
Heartbeat CPU 0 instructions: 330000003 cycles: 102200146 heartbeat IPC: 2.28531 cumulative IPC: 2.58464 (Simulation time: 0 hr 11 min 21 sec) 
Heartbeat CPU 0 instructions: 340000002 cycles: 106753904 heartbeat IPC: 2.19599 cumulative IPC: 2.55237 (Simulation time: 0 hr 11 min 43 sec) 
Heartbeat CPU 0 instructions: 350000000 cycles: 111240674 heartbeat IPC: 2.22877 cumulative IPC: 2.5279 (Simulation time: 0 hr 12 min 4 sec) 
Heartbeat CPU 0 instructions: 360000000 cycles: 115233301 heartbeat IPC: 2.50462 cumulative IPC: 2.52643 (Simulation time: 0 hr 12 min 24 sec) 
Heartbeat CPU 0 instructions: 370000002 cycles: 119377539 heartbeat IPC: 2.41299 cumulative IPC: 2.51947 (Simulation time: 0 hr 12 min 45 sec) 
Heartbeat CPU 0 instructions: 380000000 cycles: 123285173 heartbeat IPC: 2.55909 cumulative IPC: 2.52164 (Simulation time: 0 hr 13 min 5 sec) 
Heartbeat CPU 0 instructions: 390000000 cycles: 127221368 heartbeat IPC: 2.54052 cumulative IPC: 2.52262 (Simulation time: 0 hr 13 min 26 sec) 
Heartbeat CPU 0 instructions: 400000000 cycles: 130915382 heartbeat IPC: 2.70708 cumulative IPC: 2.53125 (Simulation time: 0 hr 13 min 45 sec) 
Heartbeat CPU 0 instructions: 410000004 cycles: 134553528 heartbeat IPC: 2.74865 cumulative IPC: 2.54082 (Simulation time: 0 hr 14 min 4 sec) 
Heartbeat CPU 0 instructions: 420000000 cycles: 138423251 heartbeat IPC: 2.58416 cumulative IPC: 2.54275 (Simulation time: 0 hr 14 min 25 sec) 
Heartbeat CPU 0 instructions: 430000000 cycles: 142291284 heartbeat IPC: 2.58529 cumulative IPC: 2.54458 (Simulation time: 0 hr 14 min 45 sec) 
Heartbeat CPU 0 instructions: 440000001 cycles: 146231714 heartbeat IPC: 2.53779 cumulative IPC: 2.54429 (Simulation time: 0 hr 15 min 6 sec) 
Heartbeat CPU 0 instructions: 450000001 cycles: 150109855 heartbeat IPC: 2.57856 cumulative IPC: 2.54564 (Simulation time: 0 hr 15 min 25 sec) 
Heartbeat CPU 0 instructions: 460000004 cycles: 153968719 heartbeat IPC: 2.59144 cumulative IPC: 2.54738 (Simulation time: 0 hr 15 min 45 sec) 
Heartbeat CPU 0 instructions: 470000004 cycles: 157788770 heartbeat IPC: 2.61777 cumulative IPC: 2.54992 (Simulation time: 0 hr 16 min 5 sec) 
Heartbeat CPU 0 instructions: 480000000 cycles: 161566720 heartbeat IPC: 2.64694 cumulative IPC: 2.55326 (Simulation time: 0 hr 16 min 24 sec) 
Heartbeat CPU 0 instructions: 490000000 cycles: 165339557 heartbeat IPC: 2.65053 cumulative IPC: 2.55649 (Simulation time: 0 hr 16 min 44 sec) 
Heartbeat CPU 0 instructions: 500000002 cycles: 169260979 heartbeat IPC: 2.5501 cumulative IPC: 2.55628 (Simulation time: 0 hr 17 min 5 sec) 
Heartbeat CPU 0 instructions: 510000001 cycles: 173114936 heartbeat IPC: 2.59474 cumulative IPC: 2.5575 (Simulation time: 0 hr 17 min 24 sec) 
Heartbeat CPU 0 instructions: 520000000 cycles: 177014392 heartbeat IPC: 2.56446 cumulative IPC: 2.55772 (Simulation time: 0 hr 17 min 44 sec) 
Heartbeat CPU 0 instructions: 530000002 cycles: 180961147 heartbeat IPC: 2.53373 cumulative IPC: 2.55699 (Simulation time: 0 hr 18 min 4 sec) 
Heartbeat CPU 0 instructions: 540000001 cycles: 184921909 heartbeat IPC: 2.52477 cumulative IPC: 2.55603 (Simulation time: 0 hr 18 min 24 sec) 
Heartbeat CPU 0 instructions: 550000002 cycles: 188806917 heartbeat IPC: 2.574 cumulative IPC: 2.55654 (Simulation time: 0 hr 18 min 44 sec) 
Heartbeat CPU 0 instructions: 560000000 cycles: 192836542 heartbeat IPC: 2.48162 cumulative IPC: 2.55439 (Simulation time: 0 hr 19 min 6 sec) 
Heartbeat CPU 0 instructions: 570000004 cycles: 196671027 heartbeat IPC: 2.60791 cumulative IPC: 2.55581 (Simulation time: 0 hr 19 min 26 sec) 
Heartbeat CPU 0 instructions: 580000004 cycles: 200474046 heartbeat IPC: 2.62949 cumulative IPC: 2.5577 (Simulation time: 0 hr 19 min 45 sec) 
Heartbeat CPU 0 instructions: 590000004 cycles: 204284024 heartbeat IPC: 2.62469 cumulative IPC: 2.55937 (Simulation time: 0 hr 20 min 5 sec) 
Heartbeat CPU 0 instructions: 600000001 cycles: 208158582 heartbeat IPC: 2.58094 cumulative IPC: 2.55991 (Simulation time: 0 hr 20 min 24 sec) 
Heartbeat CPU 0 instructions: 610000003 cycles: 212002471 heartbeat IPC: 2.60153 cumulative IPC: 2.56091 (Simulation time: 0 hr 20 min 44 sec) 
Heartbeat CPU 0 instructions: 620000002 cycles: 216112149 heartbeat IPC: 2.43328 cumulative IPC: 2.55771 (Simulation time: 0 hr 21 min 5 sec) 
Heartbeat CPU 0 instructions: 630000000 cycles: 220032971 heartbeat IPC: 2.55049 cumulative IPC: 2.55754 (Simulation time: 0 hr 21 min 25 sec) 
Heartbeat CPU 0 instructions: 640000003 cycles: 223962527 heartbeat IPC: 2.54482 cumulative IPC: 2.55725 (Simulation time: 0 hr 21 min 45 sec) 
Heartbeat CPU 0 instructions: 650000002 cycles: 227874177 heartbeat IPC: 2.55647 cumulative IPC: 2.55724 (Simulation time: 0 hr 22 min 6 sec) 
Heartbeat CPU 0 instructions: 660000000 cycles: 231785473 heartbeat IPC: 2.5567 cumulative IPC: 2.55722 (Simulation time: 0 hr 22 min 27 sec) 
Heartbeat CPU 0 instructions: 670000001 cycles: 235693175 heartbeat IPC: 2.55905 cumulative IPC: 2.55726 (Simulation time: 0 hr 22 min 47 sec) 
Heartbeat CPU 0 instructions: 680000002 cycles: 239615926 heartbeat IPC: 2.54923 cumulative IPC: 2.5571 (Simulation time: 0 hr 23 min 7 sec) 
Heartbeat CPU 0 instructions: 690000004 cycles: 243643570 heartbeat IPC: 2.48284 cumulative IPC: 2.55554 (Simulation time: 0 hr 23 min 28 sec) 
Heartbeat CPU 0 instructions: 700000001 cycles: 247521240 heartbeat IPC: 2.57887 cumulative IPC: 2.556 (Simulation time: 0 hr 23 min 48 sec) 
Finished CPU 0 instructions: 500000004 cycles: 195618320 cumulative IPC: 2.556 (Simulation time: 0 hr 23 min 48 sec) 

ChampSim completed all CPUs

Region of Interest Statistics

CPU 0 cumulative IPC: 2.556 instructions: 500000004 cycles: 195618320
cpu0_L1I TOTAL     ACCESS:     356285  HIT:     356285  MISS:          0
cpu0_L1I LOAD      ACCESS:     356285  HIT:     356285  MISS:          0
cpu0_L1I RFO       ACCESS:          0  HIT:          0  MISS:          0
cpu0_L1I PREFETCH  ACCESS:          0  HIT:          0  MISS:          0
cpu0_L1I WRITEBACK ACCESS:          0  HIT:          0  MISS:          0
cpu0_L1I TRANSLATION ACCESS:          0  HIT:          0  MISS:          0
cpu0_L1I PREFETCH  REQUESTED:          0  ISSUED:          0  USEFUL:          0  USELESS:          0
cpu0_L1I AVERAGE MISS LATENCY: -nan cycles
cpu0_DTLB TOTAL     ACCESS:   85843463  HIT:   85620688  MISS:     222775
cpu0_DTLB LOAD      ACCESS:   80984574  HIT:   80770886  MISS:     213688
cpu0_DTLB RFO       ACCESS:    4858889  HIT:    4849802  MISS:       9087
cpu0_DTLB PREFETCH  ACCESS:          0  HIT:          0  MISS:          0
cpu0_DTLB WRITEBACK ACCESS:          0  HIT:          0  MISS:          0
cpu0_DTLB TRANSLATION ACCESS:          0  HIT:          0  MISS:          0
cpu0_DTLB PREFETCH  REQUESTED:          0  ISSUED:          0  USEFUL:          0  USELESS:          0
cpu0_DTLB AVERAGE MISS LATENCY: 9.54785 cycles
cpu0_ITLB TOTAL     ACCESS:   46886544  HIT:   46886544  MISS:          0
cpu0_ITLB LOAD      ACCESS:   46886544  HIT:   46886544  MISS:          0
cpu0_ITLB RFO       ACCESS:          0  HIT:          0  MISS:          0
cpu0_ITLB PREFETCH  ACCESS:          0  HIT:          0  MISS:          0
cpu0_ITLB WRITEBACK ACCESS:          0  HIT:          0  MISS:          0
cpu0_ITLB TRANSLATION ACCESS:          0  HIT:          0  MISS:          0
cpu0_ITLB PREFETCH  REQUESTED:          0  ISSUED:          0  USEFUL:          0  USELESS:          0
cpu0_ITLB AVERAGE MISS LATENCY: -nan cycles
cpu0_STLB TOTAL     ACCESS:     222775  HIT:     222178  MISS:        597
cpu0_STLB LOAD      ACCESS:     213688  HIT:     213125  MISS:        563
cpu0_STLB RFO       ACCESS:       9087  HIT:       9053  MISS:         34
cpu0_STLB PREFETCH  ACCESS:          0  HIT:          0  MISS:          0
cpu0_STLB WRITEBACK ACCESS:          0  HIT:          0  MISS:          0
cpu0_STLB TRANSLATION ACCESS:          0  HIT:          0  MISS:          0
cpu0_STLB PREFETCH  REQUESTED:          0  ISSUED:          0  USEFUL:          0  USELESS:          0
cpu0_STLB AVERAGE MISS LATENCY: 188.313 cycles
cpu0_L1D TOTAL     ACCESS:   70473756  HIT:   66264227  MISS:    4209529
cpu0_L1D LOAD      ACCESS:   62055114  HIT:   58037659  MISS:    4017455
cpu0_L1D RFO       ACCESS:    8418058  HIT:    8226014  MISS:     192044
cpu0_L1D PREFETCH  ACCESS:          0  HIT:          0  MISS:          0
cpu0_L1D WRITEBACK ACCESS:          0  HIT:          0  MISS:          0
cpu0_L1D TRANSLATION ACCESS:        584  HIT:        554  MISS:         30
cpu0_L1D PREFETCH  REQUESTED:          0  ISSUED:          0  USEFUL:          0  USELESS:          0
cpu0_L1D AVERAGE MISS LATENCY: 11.9534 cycles
cpu0_L2C TOTAL     ACCESS:    4479731  HIT:    4456042  MISS:      23689
cpu0_L2C LOAD      ACCESS:    4017127  HIT:    3993726  MISS:      23401
cpu0_L2C RFO       ACCESS:     192044  HIT:     191756  MISS:        288
cpu0_L2C PREFETCH  ACCESS:          0  HIT:          0  MISS:          0
cpu0_L2C WRITEBACK ACCESS:     270530  HIT:     270530  MISS:          0
cpu0_L2C TRANSLATION ACCESS:         30  HIT:         30  MISS:          0
cpu0_L2C PREFETCH  REQUESTED:          0  ISSUED:          0  USEFUL:          0  USELESS:          0
cpu0_L2C AVERAGE MISS LATENCY: 166.124 cycles
LLC TOTAL     ACCESS:      35094  HIT:       7810  MISS:      27284
LLC LOAD      ACCESS:      23401  HIT:       6760  MISS:      16641
LLC RFO       ACCESS:        288  HIT:          1  MISS:        287
LLC PREFETCH  ACCESS:      11405  HIT:       1049  MISS:      10356
LLC WRITEBACK ACCESS:          0  HIT:          0  MISS:          0
LLC TRANSLATION ACCESS:          0  HIT:          0  MISS:          0
LLC PREFETCH  REQUESTED:      23401  ISSUED:      23401  USEFUL:      17195  USELESS:       2720
LLC AVERAGE MISS LATENCY: 157.064 cycles

DRAM Statistics
 CHANNEL 0
 RQ ROW_BUFFER_HIT:       1795  ROW_BUFFER_MISS:      25489
 DBUS AVG_CONGESTED_CYCLE:    3.93045
 WQ ROW_BUFFER_HIT:          0  ROW_BUFFER_MISS:          0  FULL:          0


CPU 0 Branch Prediction Accuracy: 93.1916% MPKI: 6.11932 Average ROB Occupancy at Mispredict: 143.907
Branch type MPKI
BRANCH_DIRECT_JUMP: 8e-06
BRANCH_INDIRECT: 0
BRANCH_CONDITIONAL: 6.1193
BRANCH_DIRECT_CALL: 1e-05
BRANCH_INDIRECT_CALL: 0
BRANCH_RETURN: 6e-06

