/home/caslab/workspace/sim/ChampSim/bin/champsim --warmup_instructions 200000000 --simulation_instructions 500000000/ /home/caslab/workspace/sim/traces/speccpu_by_champsim482.sphinx3-1395B.champsimtrace.xz
start simulation for 482.sphinx3-1395B.champsimtrace.xz

*** ChampSim Multicore Out-of-Order Simulator ***

Warmup Instructions: 200000000
Simulation Instructions: 500000000
Number of CPUs: 1
Off-chip DRAM Size: 4 GiB Channels: 1 Width: 64-bit Data Rate: 3200 MT/s

VirtualMemory physical capacity: 8588881920 num_ppages: 2096895
VirtualMemory page size: 4096 log2_page_size: 12

CPU 0 runs /home/caslab/workspace/sim/traces/speccpu_by_champsim/482.sphinx3-1395B.champsimtrace.xz
CPU 0 Bimodal branch predictor
Basic BTB sets: 1024 ways: 8 indirect buffer size: 4096 RAS size: 64
LLC next line prefetcher
WARNING: The extended signature CACHE::prefetch_line(ip, base_addr, pf_addr, fill_this_level, prefetch_metadata) is deprecated.
WARNING: Use CACHE::prefetch_line(pf_addr, fill_this_level, prefetch_metadata) instead.
Heartbeat CPU 0 instructions: 10000002 cycles: 2591688 heartbeat IPC: 3.85849 cumulative IPC: 3.85849 (Simulation time: 0 hr 0 min 21 sec) 
Heartbeat CPU 0 instructions: 20000000 cycles: 5211797 heartbeat IPC: 3.81663 cumulative IPC: 3.83745 (Simulation time: 0 hr 0 min 42 sec) 
Heartbeat CPU 0 instructions: 30000001 cycles: 7806460 heartbeat IPC: 3.85407 cumulative IPC: 3.84297 (Simulation time: 0 hr 1 min 3 sec) 
Heartbeat CPU 0 instructions: 40000003 cycles: 10408483 heartbeat IPC: 3.84316 cumulative IPC: 3.84302 (Simulation time: 0 hr 1 min 25 sec) 
Heartbeat CPU 0 instructions: 50000003 cycles: 12983546 heartbeat IPC: 3.8834 cumulative IPC: 3.85103 (Simulation time: 0 hr 1 min 46 sec) 
Heartbeat CPU 0 instructions: 60000003 cycles: 15609597 heartbeat IPC: 3.808 cumulative IPC: 3.84379 (Simulation time: 0 hr 2 min 7 sec) 
Heartbeat CPU 0 instructions: 70000000 cycles: 18206442 heartbeat IPC: 3.85083 cumulative IPC: 3.84479 (Simulation time: 0 hr 2 min 28 sec) 
Heartbeat CPU 0 instructions: 80000001 cycles: 20802177 heartbeat IPC: 3.85247 cumulative IPC: 3.84575 (Simulation time: 0 hr 2 min 49 sec) 
Heartbeat CPU 0 instructions: 90000003 cycles: 23392685 heartbeat IPC: 3.86025 cumulative IPC: 3.84736 (Simulation time: 0 hr 3 min 10 sec) 
Heartbeat CPU 0 instructions: 100000001 cycles: 25975002 heartbeat IPC: 3.87249 cumulative IPC: 3.84986 (Simulation time: 0 hr 3 min 30 sec) 
Heartbeat CPU 0 instructions: 110000003 cycles: 28581113 heartbeat IPC: 3.83714 cumulative IPC: 3.8487 (Simulation time: 0 hr 3 min 51 sec) 
Heartbeat CPU 0 instructions: 120000000 cycles: 31170800 heartbeat IPC: 3.86147 cumulative IPC: 3.84976 (Simulation time: 0 hr 4 min 11 sec) 
Heartbeat CPU 0 instructions: 130000000 cycles: 33775120 heartbeat IPC: 3.83977 cumulative IPC: 3.84899 (Simulation time: 0 hr 4 min 32 sec) 
Heartbeat CPU 0 instructions: 140000003 cycles: 36355704 heartbeat IPC: 3.87509 cumulative IPC: 3.85084 (Simulation time: 0 hr 4 min 52 sec) 
Heartbeat CPU 0 instructions: 150000003 cycles: 38977183 heartbeat IPC: 3.81464 cumulative IPC: 3.84841 (Simulation time: 0 hr 5 min 12 sec) 
Heartbeat CPU 0 instructions: 160000000 cycles: 41557407 heartbeat IPC: 3.87563 cumulative IPC: 3.8501 (Simulation time: 0 hr 5 min 32 sec) 
Heartbeat CPU 0 instructions: 170000004 cycles: 44146100 heartbeat IPC: 3.86295 cumulative IPC: 3.85085 (Simulation time: 0 hr 5 min 52 sec) 
Heartbeat CPU 0 instructions: 180000001 cycles: 46749525 heartbeat IPC: 3.84109 cumulative IPC: 3.85031 (Simulation time: 0 hr 6 min 13 sec) 
Heartbeat CPU 0 instructions: 190000001 cycles: 49350362 heartbeat IPC: 3.84492 cumulative IPC: 3.85002 (Simulation time: 0 hr 6 min 34 sec) 
Heartbeat CPU 0 instructions: 200000000 cycles: 51949969 heartbeat IPC: 3.84674 cumulative IPC: 3.84986 (Simulation time: 0 hr 6 min 55 sec) 

Warmup complete CPU 0 instructions: 200000004 cycles: 51949970 (Simulation time: 0 hr 6 min 55 sec) 

Heartbeat CPU 0 instructions: 210000003 cycles: 55904132 heartbeat IPC: 2.52898 cumulative IPC: 2.52898 (Simulation time: 0 hr 7 min 15 sec) 
Heartbeat CPU 0 instructions: 220000003 cycles: 59764971 heartbeat IPC: 2.59011 cumulative IPC: 2.55918 (Simulation time: 0 hr 7 min 35 sec) 
Heartbeat CPU 0 instructions: 230000003 cycles: 63824517 heartbeat IPC: 2.46333 cumulative IPC: 2.52641 (Simulation time: 0 hr 7 min 56 sec) 
Heartbeat CPU 0 instructions: 240000001 cycles: 67880688 heartbeat IPC: 2.46538 cumulative IPC: 2.51087 (Simulation time: 0 hr 8 min 17 sec) 
Heartbeat CPU 0 instructions: 250000001 cycles: 71945034 heartbeat IPC: 2.46042 cumulative IPC: 2.50062 (Simulation time: 0 hr 8 min 36 sec) 
Heartbeat CPU 0 instructions: 260000003 cycles: 76047931 heartbeat IPC: 2.4373 cumulative IPC: 2.48984 (Simulation time: 0 hr 8 min 57 sec) 
Heartbeat CPU 0 instructions: 270000003 cycles: 80039247 heartbeat IPC: 2.50544 cumulative IPC: 2.49205 (Simulation time: 0 hr 9 min 16 sec) 
Heartbeat CPU 0 instructions: 280000001 cycles: 83946028 heartbeat IPC: 2.55965 cumulative IPC: 2.50031 (Simulation time: 0 hr 9 min 36 sec) 
Heartbeat CPU 0 instructions: 290000003 cycles: 87817995 heartbeat IPC: 2.58267 cumulative IPC: 2.5092 (Simulation time: 0 hr 9 min 55 sec) 
Heartbeat CPU 0 instructions: 300000001 cycles: 91644961 heartbeat IPC: 2.61304 cumulative IPC: 2.51921 (Simulation time: 0 hr 10 min 16 sec) 
Heartbeat CPU 0 instructions: 310000001 cycles: 95399052 heartbeat IPC: 2.66376 cumulative IPC: 2.5317 (Simulation time: 0 hr 10 min 35 sec) 
Heartbeat CPU 0 instructions: 320000003 cycles: 99642201 heartbeat IPC: 2.35674 cumulative IPC: 2.51613 (Simulation time: 0 hr 10 min 56 sec) 
Heartbeat CPU 0 instructions: 330000003 cycles: 103932349 heartbeat IPC: 2.33092 cumulative IPC: 2.50085 (Simulation time: 0 hr 11 min 17 sec) 
Heartbeat CPU 0 instructions: 340000001 cycles: 107997439 heartbeat IPC: 2.45997 cumulative IPC: 2.49788 (Simulation time: 0 hr 11 min 37 sec) 
Heartbeat CPU 0 instructions: 350000000 cycles: 111921244 heartbeat IPC: 2.54855 cumulative IPC: 2.5012 (Simulation time: 0 hr 11 min 57 sec) 
Heartbeat CPU 0 instructions: 360000001 cycles: 116108520 heartbeat IPC: 2.38819 cumulative IPC: 2.49382 (Simulation time: 0 hr 12 min 18 sec) 
Heartbeat CPU 0 instructions: 370000000 cycles: 120135499 heartbeat IPC: 2.48325 cumulative IPC: 2.4932 (Simulation time: 0 hr 12 min 39 sec) 
Heartbeat CPU 0 instructions: 380000002 cycles: 124310704 heartbeat IPC: 2.39509 cumulative IPC: 2.48754 (Simulation time: 0 hr 13 min 0 sec) 
Heartbeat CPU 0 instructions: 390000001 cycles: 128482010 heartbeat IPC: 2.39733 cumulative IPC: 2.48262 (Simulation time: 0 hr 13 min 21 sec) 
Heartbeat CPU 0 instructions: 400000000 cycles: 132474854 heartbeat IPC: 2.50448 cumulative IPC: 2.4837 (Simulation time: 0 hr 13 min 41 sec) 
Heartbeat CPU 0 instructions: 410000001 cycles: 136643403 heartbeat IPC: 2.39892 cumulative IPC: 2.47953 (Simulation time: 0 hr 14 min 2 sec) 
Heartbeat CPU 0 instructions: 420000000 cycles: 140632753 heartbeat IPC: 2.50667 cumulative IPC: 2.48075 (Simulation time: 0 hr 14 min 23 sec) 
Heartbeat CPU 0 instructions: 430000004 cycles: 144829928 heartbeat IPC: 2.38256 cumulative IPC: 2.47631 (Simulation time: 0 hr 14 min 44 sec) 
Heartbeat CPU 0 instructions: 440000003 cycles: 148567298 heartbeat IPC: 2.67568 cumulative IPC: 2.48403 (Simulation time: 0 hr 15 min 3 sec) 
Heartbeat CPU 0 instructions: 450000002 cycles: 152302699 heartbeat IPC: 2.67709 cumulative IPC: 2.49121 (Simulation time: 0 hr 15 min 22 sec) 
Heartbeat CPU 0 instructions: 460000003 cycles: 156052214 heartbeat IPC: 2.66701 cumulative IPC: 2.49754 (Simulation time: 0 hr 15 min 41 sec) 
Heartbeat CPU 0 instructions: 470000004 cycles: 159924513 heartbeat IPC: 2.58245 cumulative IPC: 2.50059 (Simulation time: 0 hr 16 min 1 sec) 
Heartbeat CPU 0 instructions: 480000003 cycles: 163855753 heartbeat IPC: 2.54373 cumulative IPC: 2.5021 (Simulation time: 0 hr 16 min 22 sec) 
Heartbeat CPU 0 instructions: 490000001 cycles: 167700018 heartbeat IPC: 2.60128 cumulative IPC: 2.5054 (Simulation time: 0 hr 16 min 42 sec) 
Heartbeat CPU 0 instructions: 500000000 cycles: 171604833 heartbeat IPC: 2.56094 cumulative IPC: 2.50721 (Simulation time: 0 hr 17 min 1 sec) 
Heartbeat CPU 0 instructions: 510000000 cycles: 175417079 heartbeat IPC: 2.62313 cumulative IPC: 2.51079 (Simulation time: 0 hr 17 min 21 sec) 
Heartbeat CPU 0 instructions: 520000000 cycles: 179317808 heartbeat IPC: 2.56362 cumulative IPC: 2.51241 (Simulation time: 0 hr 17 min 41 sec) 
Heartbeat CPU 0 instructions: 530000002 cycles: 182913083 heartbeat IPC: 2.78143 cumulative IPC: 2.51979 (Simulation time: 0 hr 18 min 0 sec) 
Heartbeat CPU 0 instructions: 540000000 cycles: 186311935 heartbeat IPC: 2.94217 cumulative IPC: 2.53048 (Simulation time: 0 hr 18 min 18 sec) 
Heartbeat CPU 0 instructions: 550000001 cycles: 189689669 heartbeat IPC: 2.96057 cumulative IPC: 2.54102 (Simulation time: 0 hr 18 min 36 sec) 
Heartbeat CPU 0 instructions: 560000000 cycles: 193144837 heartbeat IPC: 2.89421 cumulative IPC: 2.54967 (Simulation time: 0 hr 18 min 55 sec) 
Heartbeat CPU 0 instructions: 570000000 cycles: 196657092 heartbeat IPC: 2.84717 cumulative IPC: 2.55689 (Simulation time: 0 hr 19 min 14 sec) 
Heartbeat CPU 0 instructions: 580000004 cycles: 200041413 heartbeat IPC: 2.9548 cumulative IPC: 2.56598 (Simulation time: 0 hr 19 min 32 sec) 
Heartbeat CPU 0 instructions: 590000003 cycles: 203451871 heartbeat IPC: 2.93216 cumulative IPC: 2.57423 (Simulation time: 0 hr 19 min 50 sec) 
Heartbeat CPU 0 instructions: 600000003 cycles: 207128944 heartbeat IPC: 2.71955 cumulative IPC: 2.57767 (Simulation time: 0 hr 20 min 10 sec) 
Heartbeat CPU 0 instructions: 610000003 cycles: 210835611 heartbeat IPC: 2.69784 cumulative IPC: 2.58047 (Simulation time: 0 hr 20 min 29 sec) 
Heartbeat CPU 0 instructions: 620000001 cycles: 214587635 heartbeat IPC: 2.66523 cumulative IPC: 2.58243 (Simulation time: 0 hr 20 min 48 sec) 
Heartbeat CPU 0 instructions: 630000001 cycles: 218449518 heartbeat IPC: 2.58941 cumulative IPC: 2.58259 (Simulation time: 0 hr 21 min 8 sec) 
Heartbeat CPU 0 instructions: 640000002 cycles: 222211435 heartbeat IPC: 2.65822 cumulative IPC: 2.58426 (Simulation time: 0 hr 21 min 27 sec) 
Heartbeat CPU 0 instructions: 650000003 cycles: 225972948 heartbeat IPC: 2.6585 cumulative IPC: 2.58587 (Simulation time: 0 hr 21 min 47 sec) 
Heartbeat CPU 0 instructions: 660000002 cycles: 229822268 heartbeat IPC: 2.59786 cumulative IPC: 2.58612 (Simulation time: 0 hr 22 min 6 sec) 
Heartbeat CPU 0 instructions: 670000002 cycles: 233382817 heartbeat IPC: 2.80856 cumulative IPC: 2.59049 (Simulation time: 0 hr 22 min 25 sec) 
Heartbeat CPU 0 instructions: 680000003 cycles: 236802526 heartbeat IPC: 2.92423 cumulative IPC: 2.59666 (Simulation time: 0 hr 22 min 43 sec) 
Heartbeat CPU 0 instructions: 690000000 cycles: 240378122 heartbeat IPC: 2.79674 cumulative IPC: 2.60046 (Simulation time: 0 hr 23 min 3 sec) 
Heartbeat CPU 0 instructions: 700000000 cycles: 243964814 heartbeat IPC: 2.78808 cumulative IPC: 2.60397 (Simulation time: 0 hr 23 min 22 sec) 
Finished CPU 0 instructions: 500000003 cycles: 192014846 cumulative IPC: 2.60397 (Simulation time: 0 hr 23 min 22 sec) 

ChampSim completed all CPUs

Region of Interest Statistics

CPU 0 cumulative IPC: 2.60397 instructions: 500000003 cycles: 192014846
cpu0_L1I TOTAL     ACCESS:     399391  HIT:     399070  MISS:        321
cpu0_L1I LOAD      ACCESS:     399391  HIT:     399070  MISS:        321
cpu0_L1I RFO       ACCESS:          0  HIT:          0  MISS:          0
cpu0_L1I PREFETCH  ACCESS:          0  HIT:          0  MISS:          0
cpu0_L1I WRITEBACK ACCESS:          0  HIT:          0  MISS:          0
cpu0_L1I TRANSLATION ACCESS:          0  HIT:          0  MISS:          0
cpu0_L1I PREFETCH  REQUESTED:          0  ISSUED:          0  USEFUL:          0  USELESS:          0
cpu0_L1I AVERAGE MISS LATENCY: 122.218 cycles
cpu0_DTLB TOTAL     ACCESS:   84418046  HIT:   84152427  MISS:     265619
cpu0_DTLB LOAD      ACCESS:   78827650  HIT:   78574085  MISS:     253565
cpu0_DTLB RFO       ACCESS:    5590396  HIT:    5578342  MISS:      12054
cpu0_DTLB PREFETCH  ACCESS:          0  HIT:          0  MISS:          0
cpu0_DTLB WRITEBACK ACCESS:          0  HIT:          0  MISS:          0
cpu0_DTLB TRANSLATION ACCESS:          0  HIT:          0  MISS:          0
cpu0_DTLB PREFETCH  REQUESTED:          0  ISSUED:          0  USEFUL:          0  USELESS:          0
cpu0_DTLB AVERAGE MISS LATENCY: 9.50816 cycles
cpu0_ITLB TOTAL     ACCESS:   48125818  HIT:   48125797  MISS:         21
cpu0_ITLB LOAD      ACCESS:   48125818  HIT:   48125797  MISS:         21
cpu0_ITLB RFO       ACCESS:          0  HIT:          0  MISS:          0
cpu0_ITLB PREFETCH  ACCESS:          0  HIT:          0  MISS:          0
cpu0_ITLB WRITEBACK ACCESS:          0  HIT:          0  MISS:          0
cpu0_ITLB TRANSLATION ACCESS:          0  HIT:          0  MISS:          0
cpu0_ITLB PREFETCH  REQUESTED:          0  ISSUED:          0  USEFUL:          0  USELESS:          0
cpu0_ITLB AVERAGE MISS LATENCY: 217.524 cycles
cpu0_STLB TOTAL     ACCESS:     265640  HIT:     264958  MISS:        682
cpu0_STLB LOAD      ACCESS:     253586  HIT:     253106  MISS:        480
cpu0_STLB RFO       ACCESS:      12054  HIT:      11852  MISS:        202
cpu0_STLB PREFETCH  ACCESS:          0  HIT:          0  MISS:          0
cpu0_STLB WRITEBACK ACCESS:          0  HIT:          0  MISS:          0
cpu0_STLB TRANSLATION ACCESS:          0  HIT:          0  MISS:          0
cpu0_STLB PREFETCH  REQUESTED:          0  ISSUED:          0  USEFUL:          0  USELESS:          0
cpu0_STLB AVERAGE MISS LATENCY: 200.16 cycles
cpu0_L1D TOTAL     ACCESS:   75208923  HIT:   72629331  MISS:    2579592
cpu0_L1D LOAD      ACCESS:   64854016  HIT:   62477758  MISS:    2376258
cpu0_L1D RFO       ACCESS:   10354236  HIT:   10150956  MISS:     203280
cpu0_L1D PREFETCH  ACCESS:          0  HIT:          0  MISS:          0
cpu0_L1D WRITEBACK ACCESS:          0  HIT:          0  MISS:          0
cpu0_L1D TRANSLATION ACCESS:        671  HIT:        617  MISS:         54
cpu0_L1D PREFETCH  REQUESTED:          0  ISSUED:          0  USEFUL:          0  USELESS:          0
cpu0_L1D AVERAGE MISS LATENCY: 13.3388 cycles
cpu0_L2C TOTAL     ACCESS:    2835941  HIT:    2805423  MISS:      30518
cpu0_L2C LOAD      ACCESS:    2376579  HIT:    2355686  MISS:      20893
cpu0_L2C RFO       ACCESS:     203280  HIT:     193656  MISS:       9624
cpu0_L2C PREFETCH  ACCESS:          0  HIT:          0  MISS:          0
cpu0_L2C WRITEBACK ACCESS:     256028  HIT:     256028  MISS:          0
cpu0_L2C TRANSLATION ACCESS:         54  HIT:         53  MISS:          1
cpu0_L2C PREFETCH  REQUESTED:          0  ISSUED:          0  USEFUL:          0  USELESS:          0
cpu0_L2C AVERAGE MISS LATENCY: 197.843 cycles
LLC TOTAL     ACCESS:      42510  HIT:       6746  MISS:      35764
LLC LOAD      ACCESS:      20893  HIT:       4361  MISS:      16532
LLC RFO       ACCESS:       9624  HIT:          6  MISS:       9618
LLC PREFETCH  ACCESS:      11992  HIT:       2379  MISS:       9613
LLC WRITEBACK ACCESS:          0  HIT:          0  MISS:          0
LLC TRANSLATION ACCESS:          1  HIT:          0  MISS:          1
LLC PREFETCH  REQUESTED:      20893  ISSUED:      20893  USEFUL:      10629  USELESS:       6230
LLC AVERAGE MISS LATENCY: 181.682 cycles

DRAM Statistics
 CHANNEL 0
 RQ ROW_BUFFER_HIT:       9239  ROW_BUFFER_MISS:      26525
 DBUS AVG_CONGESTED_CYCLE:    3.94778
 WQ ROW_BUFFER_HIT:          0  ROW_BUFFER_MISS:          0  FULL:          0


CPU 0 Branch Prediction Accuracy: 92.8551% MPKI: 6.43803 Average ROB Occupancy at Mispredict: 126.469
Branch type MPKI
BRANCH_DIRECT_JUMP: 0.000136
BRANCH_INDIRECT: 0.000186
BRANCH_CONDITIONAL: 6.43714
BRANCH_DIRECT_CALL: 0.000212
BRANCH_INDIRECT_CALL: 0.000156
BRANCH_RETURN: 0.000196

