/home/caslab/workspace/sim/ChampSim/bin/champsim --warmup_instructions 200000000 --simulation_instructions 500000000/ /home/caslab/workspace/sim/traces/speccpu_by_champsim482.sphinx3-1100B.champsimtrace.xz
start simulation for 482.sphinx3-1100B.champsimtrace.xz

*** ChampSim Multicore Out-of-Order Simulator ***

Warmup Instructions: 200000000
Simulation Instructions: 500000000
Number of CPUs: 1
Off-chip DRAM Size: 4 GiB Channels: 1 Width: 64-bit Data Rate: 3200 MT/s

VirtualMemory physical capacity: 8588881920 num_ppages: 2096895
VirtualMemory page size: 4096 log2_page_size: 12

CPU 0 runs /home/caslab/workspace/sim/traces/speccpu_by_champsim/482.sphinx3-1100B.champsimtrace.xz
CPU 0 Bimodal branch predictor
Basic BTB sets: 1024 ways: 8 indirect buffer size: 4096 RAS size: 64
LLC next line prefetcher
WARNING: The extended signature CACHE::prefetch_line(ip, base_addr, pf_addr, fill_this_level, prefetch_metadata) is deprecated.
WARNING: Use CACHE::prefetch_line(pf_addr, fill_this_level, prefetch_metadata) instead.
Heartbeat CPU 0 instructions: 10000000 cycles: 2591973 heartbeat IPC: 3.85806 cumulative IPC: 3.85806 (Simulation time: 0 hr 0 min 22 sec) 
Heartbeat CPU 0 instructions: 20000002 cycles: 5169070 heartbeat IPC: 3.88034 cumulative IPC: 3.86917 (Simulation time: 0 hr 0 min 43 sec) 
Heartbeat CPU 0 instructions: 30000000 cycles: 7762342 heartbeat IPC: 3.85613 cumulative IPC: 3.86481 (Simulation time: 0 hr 1 min 5 sec) 
Heartbeat CPU 0 instructions: 40000003 cycles: 10365066 heartbeat IPC: 3.84213 cumulative IPC: 3.85912 (Simulation time: 0 hr 1 min 27 sec) 
Heartbeat CPU 0 instructions: 50000003 cycles: 12963205 heartbeat IPC: 3.84891 cumulative IPC: 3.85707 (Simulation time: 0 hr 1 min 49 sec) 
Heartbeat CPU 0 instructions: 60000004 cycles: 15562983 heartbeat IPC: 3.84648 cumulative IPC: 3.8553 (Simulation time: 0 hr 2 min 10 sec) 
Heartbeat CPU 0 instructions: 70000001 cycles: 18173575 heartbeat IPC: 3.83055 cumulative IPC: 3.85175 (Simulation time: 0 hr 2 min 33 sec) 
Heartbeat CPU 0 instructions: 80000004 cycles: 20748841 heartbeat IPC: 3.8831 cumulative IPC: 3.85564 (Simulation time: 0 hr 2 min 55 sec) 
Heartbeat CPU 0 instructions: 90000002 cycles: 23351194 heartbeat IPC: 3.84268 cumulative IPC: 3.85419 (Simulation time: 0 hr 3 min 17 sec) 
Heartbeat CPU 0 instructions: 100000000 cycles: 26011985 heartbeat IPC: 3.75828 cumulative IPC: 3.84438 (Simulation time: 0 hr 3 min 40 sec) 
Heartbeat CPU 0 instructions: 110000002 cycles: 28611312 heartbeat IPC: 3.84715 cumulative IPC: 3.84463 (Simulation time: 0 hr 4 min 1 sec) 
Heartbeat CPU 0 instructions: 120000000 cycles: 31186583 heartbeat IPC: 3.88309 cumulative IPC: 3.84781 (Simulation time: 0 hr 4 min 22 sec) 
Heartbeat CPU 0 instructions: 130000002 cycles: 33773610 heartbeat IPC: 3.86544 cumulative IPC: 3.84916 (Simulation time: 0 hr 4 min 44 sec) 
Heartbeat CPU 0 instructions: 140000004 cycles: 36362626 heartbeat IPC: 3.86247 cumulative IPC: 3.85011 (Simulation time: 0 hr 5 min 5 sec) 
Heartbeat CPU 0 instructions: 150000001 cycles: 38948975 heartbeat IPC: 3.86645 cumulative IPC: 3.85119 (Simulation time: 0 hr 5 min 26 sec) 
Heartbeat CPU 0 instructions: 160000003 cycles: 41568488 heartbeat IPC: 3.8175 cumulative IPC: 3.84907 (Simulation time: 0 hr 5 min 48 sec) 
Heartbeat CPU 0 instructions: 170000001 cycles: 44158551 heartbeat IPC: 3.86091 cumulative IPC: 3.84976 (Simulation time: 0 hr 6 min 10 sec) 
Heartbeat CPU 0 instructions: 180000001 cycles: 46759066 heartbeat IPC: 3.84539 cumulative IPC: 3.84952 (Simulation time: 0 hr 6 min 31 sec) 
Heartbeat CPU 0 instructions: 190000003 cycles: 49337307 heartbeat IPC: 3.87861 cumulative IPC: 3.85104 (Simulation time: 0 hr 6 min 52 sec) 
Heartbeat CPU 0 instructions: 200000004 cycles: 51918908 heartbeat IPC: 3.87357 cumulative IPC: 3.85216 (Simulation time: 0 hr 7 min 13 sec) 

Warmup complete CPU 0 instructions: 200000004 cycles: 51918908 (Simulation time: 0 hr 7 min 13 sec) 

Heartbeat CPU 0 instructions: 210000004 cycles: 55748989 heartbeat IPC: 2.61091 cumulative IPC: 2.61091 (Simulation time: 0 hr 7 min 32 sec) 
Heartbeat CPU 0 instructions: 220000000 cycles: 59650048 heartbeat IPC: 2.56341 cumulative IPC: 2.58694 (Simulation time: 0 hr 7 min 53 sec) 
Heartbeat CPU 0 instructions: 230000002 cycles: 63495975 heartbeat IPC: 2.60015 cumulative IPC: 2.59133 (Simulation time: 0 hr 8 min 13 sec) 
Heartbeat CPU 0 instructions: 240000000 cycles: 67243662 heartbeat IPC: 2.66831 cumulative IPC: 2.61016 (Simulation time: 0 hr 8 min 33 sec) 
Heartbeat CPU 0 instructions: 250000002 cycles: 70988979 heartbeat IPC: 2.67 cumulative IPC: 2.62191 (Simulation time: 0 hr 8 min 52 sec) 
Heartbeat CPU 0 instructions: 260000002 cycles: 74808395 heartbeat IPC: 2.6182 cumulative IPC: 2.62129 (Simulation time: 0 hr 9 min 12 sec) 
Heartbeat CPU 0 instructions: 270000002 cycles: 78724903 heartbeat IPC: 2.55329 cumulative IPC: 2.61136 (Simulation time: 0 hr 9 min 34 sec) 
Heartbeat CPU 0 instructions: 280000001 cycles: 82450488 heartbeat IPC: 2.68414 cumulative IPC: 2.62024 (Simulation time: 0 hr 9 min 53 sec) 
Heartbeat CPU 0 instructions: 290000004 cycles: 86360531 heartbeat IPC: 2.55752 cumulative IPC: 2.61312 (Simulation time: 0 hr 10 min 13 sec) 
Heartbeat CPU 0 instructions: 300000001 cycles: 90500628 heartbeat IPC: 2.4154 cumulative IPC: 2.5919 (Simulation time: 0 hr 10 min 33 sec) 
Heartbeat CPU 0 instructions: 310000004 cycles: 95111842 heartbeat IPC: 2.16863 cumulative IPC: 2.54671 (Simulation time: 0 hr 10 min 55 sec) 
Heartbeat CPU 0 instructions: 320000000 cycles: 99177941 heartbeat IPC: 2.45936 cumulative IPC: 2.5392 (Simulation time: 0 hr 11 min 15 sec) 
Heartbeat CPU 0 instructions: 330000001 cycles: 103727925 heartbeat IPC: 2.19781 cumulative IPC: 2.50922 (Simulation time: 0 hr 11 min 37 sec) 
Heartbeat CPU 0 instructions: 340000002 cycles: 107753920 heartbeat IPC: 2.48386 cumulative IPC: 2.50739 (Simulation time: 0 hr 11 min 58 sec) 
Heartbeat CPU 0 instructions: 350000000 cycles: 111886272 heartbeat IPC: 2.41993 cumulative IPC: 2.50136 (Simulation time: 0 hr 12 min 19 sec) 
Heartbeat CPU 0 instructions: 360000000 cycles: 115899227 heartbeat IPC: 2.49193 cumulative IPC: 2.50077 (Simulation time: 0 hr 12 min 39 sec) 
Heartbeat CPU 0 instructions: 370000004 cycles: 120088294 heartbeat IPC: 2.38717 cumulative IPC: 2.49379 (Simulation time: 0 hr 13 min 0 sec) 
Heartbeat CPU 0 instructions: 380000003 cycles: 124055919 heartbeat IPC: 2.5204 cumulative IPC: 2.49525 (Simulation time: 0 hr 13 min 20 sec) 
Heartbeat CPU 0 instructions: 390000003 cycles: 128106150 heartbeat IPC: 2.469 cumulative IPC: 2.49386 (Simulation time: 0 hr 13 min 40 sec) 
Heartbeat CPU 0 instructions: 400000000 cycles: 132262407 heartbeat IPC: 2.40601 cumulative IPC: 2.48931 (Simulation time: 0 hr 14 min 2 sec) 
Heartbeat CPU 0 instructions: 410000003 cycles: 136352887 heartbeat IPC: 2.4447 cumulative IPC: 2.48715 (Simulation time: 0 hr 14 min 22 sec) 
Heartbeat CPU 0 instructions: 420000000 cycles: 140792482 heartbeat IPC: 2.25246 cumulative IPC: 2.47543 (Simulation time: 0 hr 14 min 43 sec) 
Heartbeat CPU 0 instructions: 430000001 cycles: 144919351 heartbeat IPC: 2.42314 cumulative IPC: 2.47311 (Simulation time: 0 hr 15 min 4 sec) 
Heartbeat CPU 0 instructions: 440000001 cycles: 148873242 heartbeat IPC: 2.52915 cumulative IPC: 2.47539 (Simulation time: 0 hr 15 min 25 sec) 
Heartbeat CPU 0 instructions: 450000003 cycles: 152963663 heartbeat IPC: 2.44474 cumulative IPC: 2.47415 (Simulation time: 0 hr 15 min 46 sec) 
Heartbeat CPU 0 instructions: 460000002 cycles: 156874628 heartbeat IPC: 2.55691 cumulative IPC: 2.47724 (Simulation time: 0 hr 16 min 6 sec) 
Heartbeat CPU 0 instructions: 470000002 cycles: 160851213 heartbeat IPC: 2.51472 cumulative IPC: 2.4786 (Simulation time: 0 hr 16 min 26 sec) 
Heartbeat CPU 0 instructions: 480000003 cycles: 164898870 heartbeat IPC: 2.47057 cumulative IPC: 2.47832 (Simulation time: 0 hr 16 min 48 sec) 
Heartbeat CPU 0 instructions: 490000001 cycles: 168817319 heartbeat IPC: 2.55203 cumulative IPC: 2.48079 (Simulation time: 0 hr 17 min 8 sec) 
Heartbeat CPU 0 instructions: 500000001 cycles: 172870068 heartbeat IPC: 2.46746 cumulative IPC: 2.48034 (Simulation time: 0 hr 17 min 29 sec) 
Heartbeat CPU 0 instructions: 510000001 cycles: 176882835 heartbeat IPC: 2.49205 cumulative IPC: 2.48072 (Simulation time: 0 hr 17 min 49 sec) 
Heartbeat CPU 0 instructions: 520000003 cycles: 180997714 heartbeat IPC: 2.43021 cumulative IPC: 2.47911 (Simulation time: 0 hr 18 min 10 sec) 
Heartbeat CPU 0 instructions: 530000000 cycles: 185000018 heartbeat IPC: 2.49856 cumulative IPC: 2.47969 (Simulation time: 0 hr 18 min 31 sec) 
Heartbeat CPU 0 instructions: 540000001 cycles: 189162150 heartbeat IPC: 2.40262 cumulative IPC: 2.47735 (Simulation time: 0 hr 18 min 52 sec) 
Heartbeat CPU 0 instructions: 550000002 cycles: 193166249 heartbeat IPC: 2.49744 cumulative IPC: 2.47792 (Simulation time: 0 hr 19 min 12 sec) 
Heartbeat CPU 0 instructions: 560000002 cycles: 197438771 heartbeat IPC: 2.34054 cumulative IPC: 2.47389 (Simulation time: 0 hr 19 min 34 sec) 
Heartbeat CPU 0 instructions: 570000001 cycles: 201538630 heartbeat IPC: 2.43911 cumulative IPC: 2.47294 (Simulation time: 0 hr 19 min 54 sec) 
Heartbeat CPU 0 instructions: 580000004 cycles: 205637044 heartbeat IPC: 2.43997 cumulative IPC: 2.47206 (Simulation time: 0 hr 20 min 14 sec) 
Heartbeat CPU 0 instructions: 590000002 cycles: 209788893 heartbeat IPC: 2.40857 cumulative IPC: 2.47039 (Simulation time: 0 hr 20 min 35 sec) 
Heartbeat CPU 0 instructions: 600000000 cycles: 213793687 heartbeat IPC: 2.49701 cumulative IPC: 2.47105 (Simulation time: 0 hr 20 min 55 sec) 
Heartbeat CPU 0 instructions: 610000003 cycles: 217695887 heartbeat IPC: 2.56266 cumulative IPC: 2.4732 (Simulation time: 0 hr 21 min 15 sec) 
Heartbeat CPU 0 instructions: 620000000 cycles: 221560935 heartbeat IPC: 2.58729 cumulative IPC: 2.4758 (Simulation time: 0 hr 21 min 35 sec) 
Heartbeat CPU 0 instructions: 630000002 cycles: 225546027 heartbeat IPC: 2.50935 cumulative IPC: 2.47657 (Simulation time: 0 hr 21 min 56 sec) 
Heartbeat CPU 0 instructions: 640000004 cycles: 229350096 heartbeat IPC: 2.62876 cumulative IPC: 2.47983 (Simulation time: 0 hr 22 min 16 sec) 
Heartbeat CPU 0 instructions: 650000000 cycles: 233271203 heartbeat IPC: 2.5503 cumulative IPC: 2.48136 (Simulation time: 0 hr 22 min 36 sec) 
Heartbeat CPU 0 instructions: 660000000 cycles: 237143492 heartbeat IPC: 2.58245 cumulative IPC: 2.48347 (Simulation time: 0 hr 22 min 57 sec) 
Heartbeat CPU 0 instructions: 670000004 cycles: 241064949 heartbeat IPC: 2.55007 cumulative IPC: 2.48485 (Simulation time: 0 hr 23 min 17 sec) 
Heartbeat CPU 0 instructions: 680000004 cycles: 245132090 heartbeat IPC: 2.45873 cumulative IPC: 2.4843 (Simulation time: 0 hr 23 min 37 sec) 
Heartbeat CPU 0 instructions: 690000001 cycles: 249180318 heartbeat IPC: 2.47022 cumulative IPC: 2.48401 (Simulation time: 0 hr 23 min 58 sec) 
Heartbeat CPU 0 instructions: 700000003 cycles: 253371620 heartbeat IPC: 2.38589 cumulative IPC: 2.48197 (Simulation time: 0 hr 24 min 19 sec) 
Finished CPU 0 instructions: 500000004 cycles: 201452713 cumulative IPC: 2.48197 (Simulation time: 0 hr 24 min 19 sec) 

ChampSim completed all CPUs

Region of Interest Statistics

CPU 0 cumulative IPC: 2.48197 instructions: 500000004 cycles: 201452713
cpu0_L1I TOTAL     ACCESS:     395376  HIT:     395373  MISS:          3
cpu0_L1I LOAD      ACCESS:     395376  HIT:     395373  MISS:          3
cpu0_L1I RFO       ACCESS:          0  HIT:          0  MISS:          0
cpu0_L1I PREFETCH  ACCESS:          0  HIT:          0  MISS:          0
cpu0_L1I WRITEBACK ACCESS:          0  HIT:          0  MISS:          0
cpu0_L1I TRANSLATION ACCESS:          0  HIT:          0  MISS:          0
cpu0_L1I PREFETCH  REQUESTED:          0  ISSUED:          0  USEFUL:          0  USELESS:          0
cpu0_L1I AVERAGE MISS LATENCY: 194.333 cycles
cpu0_DTLB TOTAL     ACCESS:   86598407  HIT:   86367535  MISS:     230872
cpu0_DTLB LOAD      ACCESS:   81499665  HIT:   81277662  MISS:     222003
cpu0_DTLB RFO       ACCESS:    5098742  HIT:    5089873  MISS:       8869
cpu0_DTLB PREFETCH  ACCESS:          0  HIT:          0  MISS:          0
cpu0_DTLB WRITEBACK ACCESS:          0  HIT:          0  MISS:          0
cpu0_DTLB TRANSLATION ACCESS:          0  HIT:          0  MISS:          0
cpu0_DTLB PREFETCH  REQUESTED:          0  ISSUED:          0  USEFUL:          0  USELESS:          0
cpu0_DTLB AVERAGE MISS LATENCY: 9.49259 cycles
cpu0_ITLB TOTAL     ACCESS:   46819748  HIT:   46819748  MISS:          0
cpu0_ITLB LOAD      ACCESS:   46819748  HIT:   46819748  MISS:          0
cpu0_ITLB RFO       ACCESS:          0  HIT:          0  MISS:          0
cpu0_ITLB PREFETCH  ACCESS:          0  HIT:          0  MISS:          0
cpu0_ITLB WRITEBACK ACCESS:          0  HIT:          0  MISS:          0
cpu0_ITLB TRANSLATION ACCESS:          0  HIT:          0  MISS:          0
cpu0_ITLB PREFETCH  REQUESTED:          0  ISSUED:          0  USEFUL:          0  USELESS:          0
cpu0_ITLB AVERAGE MISS LATENCY: -nan cycles
cpu0_STLB TOTAL     ACCESS:     230872  HIT:     230238  MISS:        634
cpu0_STLB LOAD      ACCESS:     222003  HIT:     221422  MISS:        581
cpu0_STLB RFO       ACCESS:       8869  HIT:       8816  MISS:         53
cpu0_STLB PREFETCH  ACCESS:          0  HIT:          0  MISS:          0
cpu0_STLB WRITEBACK ACCESS:          0  HIT:          0  MISS:          0
cpu0_STLB TRANSLATION ACCESS:          0  HIT:          0  MISS:          0
cpu0_STLB PREFETCH  REQUESTED:          0  ISSUED:          0  USEFUL:          0  USELESS:          0
cpu0_STLB AVERAGE MISS LATENCY: 167.44 cycles
cpu0_L1D TOTAL     ACCESS:   70089328  HIT:   65218834  MISS:    4870494
cpu0_L1D LOAD      ACCESS:   61325903  HIT:   56664694  MISS:    4661209
cpu0_L1D RFO       ACCESS:    8762808  HIT:    8553585  MISS:     209223
cpu0_L1D PREFETCH  ACCESS:          0  HIT:          0  MISS:          0
cpu0_L1D WRITEBACK ACCESS:          0  HIT:          0  MISS:          0
cpu0_L1D TRANSLATION ACCESS:        617  HIT:        555  MISS:         62
cpu0_L1D PREFETCH  REQUESTED:          0  ISSUED:          0  USEFUL:          0  USELESS:          0
cpu0_L1D AVERAGE MISS LATENCY: 12.2357 cycles
cpu0_L2C TOTAL     ACCESS:    5176613  HIT:    5142750  MISS:      33863
cpu0_L2C LOAD      ACCESS:    4661212  HIT:    4627590  MISS:      33622
cpu0_L2C RFO       ACCESS:     209223  HIT:     208982  MISS:        241
cpu0_L2C PREFETCH  ACCESS:          0  HIT:          0  MISS:          0
cpu0_L2C WRITEBACK ACCESS:     306116  HIT:     306116  MISS:          0
cpu0_L2C TRANSLATION ACCESS:         62  HIT:         62  MISS:          0
cpu0_L2C PREFETCH  REQUESTED:          0  ISSUED:          0  USEFUL:          0  USELESS:          0
cpu0_L2C AVERAGE MISS LATENCY: 174.962 cycles
LLC TOTAL     ACCESS:      50861  HIT:      12671  MISS:      38190
LLC LOAD      ACCESS:      33622  HIT:       9689  MISS:      23933
LLC RFO       ACCESS:        241  HIT:          1  MISS:        240
LLC PREFETCH  ACCESS:      16998  HIT:       2981  MISS:      14017
LLC WRITEBACK ACCESS:          0  HIT:          0  MISS:          0
LLC TRANSLATION ACCESS:          0  HIT:          0  MISS:          0
LLC PREFETCH  REQUESTED:      33622  ISSUED:      33622  USEFUL:      23795  USELESS:       4152
LLC AVERAGE MISS LATENCY: 163.572 cycles

DRAM Statistics
 CHANNEL 0
 RQ ROW_BUFFER_HIT:       2049  ROW_BUFFER_MISS:      36141
 DBUS AVG_CONGESTED_CYCLE:    3.92627
 WQ ROW_BUFFER_HIT:          0  ROW_BUFFER_MISS:          0  FULL:          0


CPU 0 Branch Prediction Accuracy: 93.0127% MPKI: 6.38471 Average ROB Occupancy at Mispredict: 141.275
Branch type MPKI
BRANCH_DIRECT_JUMP: 4e-06
BRANCH_INDIRECT: 0
BRANCH_CONDITIONAL: 6.38469
BRANCH_DIRECT_CALL: 2e-06
BRANCH_INDIRECT_CALL: 4e-06
BRANCH_RETURN: 4e-06

