/home/caslab/workspace/sim/ChampSim/bin/champsim --warmup_instructions 200000000 --simulation_instructions 500000000/ /home/caslab/workspace/sim/traces/speccpu_by_champsim483.xalancbmk-716B.champsimtrace.xz
start simulation for 483.xalancbmk-716B.champsimtrace.xz

*** ChampSim Multicore Out-of-Order Simulator ***

Warmup Instructions: 200000000
Simulation Instructions: 500000000
Number of CPUs: 1
Off-chip DRAM Size: 4 GiB Channels: 1 Width: 64-bit Data Rate: 3200 MT/s

VirtualMemory physical capacity: 8588881920 num_ppages: 2096895
VirtualMemory page size: 4096 log2_page_size: 12

CPU 0 runs /home/caslab/workspace/sim/traces/speccpu_by_champsim/483.xalancbmk-716B.champsimtrace.xz
CPU 0 Bimodal branch predictor
Basic BTB sets: 1024 ways: 8 indirect buffer size: 4096 RAS size: 64
LLC next line prefetcher
WARNING: The extended signature CACHE::prefetch_line(ip, base_addr, pf_addr, fill_this_level, prefetch_metadata) is deprecated.
WARNING: Use CACHE::prefetch_line(pf_addr, fill_this_level, prefetch_metadata) instead.
Heartbeat CPU 0 instructions: 10000002 cycles: 2500059 heartbeat IPC: 3.99991 cumulative IPC: 3.99991 (Simulation time: 0 hr 0 min 19 sec) 
Heartbeat CPU 0 instructions: 20000002 cycles: 5000059 heartbeat IPC: 4 cumulative IPC: 3.99995 (Simulation time: 0 hr 0 min 37 sec) 
Heartbeat CPU 0 instructions: 30000002 cycles: 7500059 heartbeat IPC: 4 cumulative IPC: 3.99997 (Simulation time: 0 hr 0 min 56 sec) 
Heartbeat CPU 0 instructions: 40000002 cycles: 10000059 heartbeat IPC: 4 cumulative IPC: 3.99998 (Simulation time: 0 hr 1 min 15 sec) 
Heartbeat CPU 0 instructions: 50000001 cycles: 12513047 heartbeat IPC: 3.97933 cumulative IPC: 3.99583 (Simulation time: 0 hr 1 min 36 sec) 
Heartbeat CPU 0 instructions: 60000001 cycles: 15038438 heartbeat IPC: 3.95978 cumulative IPC: 3.98978 (Simulation time: 0 hr 1 min 56 sec) 
Heartbeat CPU 0 instructions: 70000000 cycles: 17538818 heartbeat IPC: 3.99939 cumulative IPC: 3.99115 (Simulation time: 0 hr 2 min 18 sec) 
Heartbeat CPU 0 instructions: 80000001 cycles: 20069116 heartbeat IPC: 3.9521 cumulative IPC: 3.98622 (Simulation time: 0 hr 2 min 39 sec) 
Heartbeat CPU 0 instructions: 90000003 cycles: 22637056 heartbeat IPC: 3.89417 cumulative IPC: 3.97578 (Simulation time: 0 hr 3 min 0 sec) 
Heartbeat CPU 0 instructions: 100000003 cycles: 25175624 heartbeat IPC: 3.93923 cumulative IPC: 3.9721 (Simulation time: 0 hr 3 min 20 sec) 
Heartbeat CPU 0 instructions: 110000003 cycles: 27675624 heartbeat IPC: 4 cumulative IPC: 3.97462 (Simulation time: 0 hr 3 min 39 sec) 
Heartbeat CPU 0 instructions: 120000000 cycles: 30177154 heartbeat IPC: 3.99755 cumulative IPC: 3.97652 (Simulation time: 0 hr 3 min 59 sec) 
Heartbeat CPU 0 instructions: 130000002 cycles: 32702536 heartbeat IPC: 3.9598 cumulative IPC: 3.97523 (Simulation time: 0 hr 4 min 21 sec) 
Heartbeat CPU 0 instructions: 140000000 cycles: 35203393 heartbeat IPC: 3.99863 cumulative IPC: 3.97689 (Simulation time: 0 hr 4 min 41 sec) 
Heartbeat CPU 0 instructions: 150000000 cycles: 37712688 heartbeat IPC: 3.98518 cumulative IPC: 3.97744 (Simulation time: 0 hr 5 min 3 sec) 
Heartbeat CPU 0 instructions: 160000000 cycles: 40268673 heartbeat IPC: 3.91239 cumulative IPC: 3.97331 (Simulation time: 0 hr 5 min 24 sec) 
Heartbeat CPU 0 instructions: 170000000 cycles: 42771238 heartbeat IPC: 3.9959 cumulative IPC: 3.97463 (Simulation time: 0 hr 5 min 43 sec) 
Heartbeat CPU 0 instructions: 180000001 cycles: 45278577 heartbeat IPC: 3.98829 cumulative IPC: 3.97539 (Simulation time: 0 hr 6 min 4 sec) 
Heartbeat CPU 0 instructions: 190000003 cycles: 47827173 heartbeat IPC: 3.92373 cumulative IPC: 3.97264 (Simulation time: 0 hr 6 min 25 sec) 
Heartbeat CPU 0 instructions: 200000002 cycles: 50403635 heartbeat IPC: 3.88129 cumulative IPC: 3.96797 (Simulation time: 0 hr 6 min 46 sec) 

Warmup complete CPU 0 instructions: 200000002 cycles: 50403635 (Simulation time: 0 hr 6 min 46 sec) 

Heartbeat CPU 0 instructions: 210000000 cycles: 55172192 heartbeat IPC: 2.09707 cumulative IPC: 2.09707 (Simulation time: 0 hr 7 min 14 sec) 
Heartbeat CPU 0 instructions: 220000003 cycles: 59171633 heartbeat IPC: 2.50035 cumulative IPC: 2.28102 (Simulation time: 0 hr 7 min 44 sec) 
Heartbeat CPU 0 instructions: 230000004 cycles: 64793670 heartbeat IPC: 1.77871 cumulative IPC: 2.08478 (Simulation time: 0 hr 8 min 12 sec) 
Heartbeat CPU 0 instructions: 240000003 cycles: 72172220 heartbeat IPC: 1.35528 cumulative IPC: 1.83751 (Simulation time: 0 hr 8 min 35 sec) 
Heartbeat CPU 0 instructions: 250000002 cycles: 78638968 heartbeat IPC: 1.54637 cumulative IPC: 1.77083 (Simulation time: 0 hr 9 min 1 sec) 
Heartbeat CPU 0 instructions: 260000004 cycles: 84553184 heartbeat IPC: 1.69084 cumulative IPC: 1.75698 (Simulation time: 0 hr 9 min 27 sec) 
Heartbeat CPU 0 instructions: 270000001 cycles: 88778536 heartbeat IPC: 2.36667 cumulative IPC: 1.82411 (Simulation time: 0 hr 9 min 57 sec) 
Heartbeat CPU 0 instructions: 280000000 cycles: 92839227 heartbeat IPC: 2.46263 cumulative IPC: 1.88521 (Simulation time: 0 hr 10 min 26 sec) 
Heartbeat CPU 0 instructions: 290000000 cycles: 99598064 heartbeat IPC: 1.47954 cumulative IPC: 1.82948 (Simulation time: 0 hr 10 min 52 sec) 
Heartbeat CPU 0 instructions: 300000002 cycles: 106812180 heartbeat IPC: 1.38617 cumulative IPC: 1.77278 (Simulation time: 0 hr 11 min 17 sec) 
Heartbeat CPU 0 instructions: 310000003 cycles: 114394992 heartbeat IPC: 1.31877 cumulative IPC: 1.71898 (Simulation time: 0 hr 11 min 42 sec) 
Heartbeat CPU 0 instructions: 320000000 cycles: 121314173 heartbeat IPC: 1.44526 cumulative IPC: 1.69227 (Simulation time: 0 hr 12 min 7 sec) 
Heartbeat CPU 0 instructions: 330000001 cycles: 128021024 heartbeat IPC: 1.49101 cumulative IPC: 1.67488 (Simulation time: 0 hr 12 min 31 sec) 
Heartbeat CPU 0 instructions: 340000002 cycles: 134172133 heartbeat IPC: 1.62572 cumulative IPC: 1.67127 (Simulation time: 0 hr 12 min 57 sec) 
Heartbeat CPU 0 instructions: 350000000 cycles: 139846539 heartbeat IPC: 1.7623 cumulative IPC: 1.67705 (Simulation time: 0 hr 13 min 25 sec) 
Heartbeat CPU 0 instructions: 360000000 cycles: 144545355 heartbeat IPC: 2.1282 cumulative IPC: 1.69957 (Simulation time: 0 hr 13 min 53 sec) 
Heartbeat CPU 0 instructions: 370000001 cycles: 148282682 heartbeat IPC: 2.67571 cumulative IPC: 1.73684 (Simulation time: 0 hr 14 min 24 sec) 
Heartbeat CPU 0 instructions: 380000000 cycles: 152290294 heartbeat IPC: 2.49525 cumulative IPC: 1.76667 (Simulation time: 0 hr 14 min 54 sec) 
Heartbeat CPU 0 instructions: 390000002 cycles: 158211220 heartbeat IPC: 1.68893 cumulative IPC: 1.7624 (Simulation time: 0 hr 15 min 21 sec) 
Heartbeat CPU 0 instructions: 400000000 cycles: 165719998 heartbeat IPC: 1.33177 cumulative IPC: 1.73436 (Simulation time: 0 hr 15 min 45 sec) 
Heartbeat CPU 0 instructions: 410000004 cycles: 172636024 heartbeat IPC: 1.44592 cumulative IPC: 1.71804 (Simulation time: 0 hr 16 min 9 sec) 
Heartbeat CPU 0 instructions: 420000004 cycles: 178888468 heartbeat IPC: 1.59937 cumulative IPC: 1.71226 (Simulation time: 0 hr 16 min 34 sec) 
Heartbeat CPU 0 instructions: 430000000 cycles: 184725728 heartbeat IPC: 1.71313 cumulative IPC: 1.7123 (Simulation time: 0 hr 17 min 1 sec) 
Heartbeat CPU 0 instructions: 440000000 cycles: 190193518 heartbeat IPC: 1.82889 cumulative IPC: 1.71686 (Simulation time: 0 hr 17 min 28 sec) 
Heartbeat CPU 0 instructions: 450000001 cycles: 194422493 heartbeat IPC: 2.36464 cumulative IPC: 1.73588 (Simulation time: 0 hr 17 min 57 sec) 
Heartbeat CPU 0 instructions: 460000003 cycles: 198151726 heartbeat IPC: 2.68152 cumulative IPC: 1.75975 (Simulation time: 0 hr 18 min 27 sec) 
Heartbeat CPU 0 instructions: 470000002 cycles: 202088604 heartbeat IPC: 2.54008 cumulative IPC: 1.78 (Simulation time: 0 hr 18 min 57 sec) 
Heartbeat CPU 0 instructions: 480000000 cycles: 207050424 heartbeat IPC: 2.01539 cumulative IPC: 1.78746 (Simulation time: 0 hr 19 min 26 sec) 
Heartbeat CPU 0 instructions: 490000000 cycles: 214677908 heartbeat IPC: 1.31105 cumulative IPC: 1.76534 (Simulation time: 0 hr 19 min 51 sec) 
Heartbeat CPU 0 instructions: 500000002 cycles: 220139610 heartbeat IPC: 1.83093 cumulative IPC: 1.76745 (Simulation time: 0 hr 20 min 19 sec) 
Heartbeat CPU 0 instructions: 510000004 cycles: 227152594 heartbeat IPC: 1.42593 cumulative IPC: 1.7539 (Simulation time: 0 hr 20 min 44 sec) 
Heartbeat CPU 0 instructions: 520000000 cycles: 233608676 heartbeat IPC: 1.54893 cumulative IPC: 1.74668 (Simulation time: 0 hr 21 min 10 sec) 
Heartbeat CPU 0 instructions: 530000001 cycles: 240625808 heartbeat IPC: 1.42508 cumulative IPC: 1.73481 (Simulation time: 0 hr 21 min 36 sec) 
Heartbeat CPU 0 instructions: 540000000 cycles: 248539515 heartbeat IPC: 1.26363 cumulative IPC: 1.71599 (Simulation time: 0 hr 22 min 0 sec) 
Heartbeat CPU 0 instructions: 550000000 cycles: 256198983 heartbeat IPC: 1.30557 cumulative IPC: 1.70072 (Simulation time: 0 hr 22 min 25 sec) 
Heartbeat CPU 0 instructions: 560000002 cycles: 261641271 heartbeat IPC: 1.83746 cumulative IPC: 1.70424 (Simulation time: 0 hr 22 min 53 sec) 
Heartbeat CPU 0 instructions: 570000001 cycles: 268389737 heartbeat IPC: 1.48182 cumulative IPC: 1.69736 (Simulation time: 0 hr 23 min 19 sec) 
Heartbeat CPU 0 instructions: 580000000 cycles: 276475256 heartbeat IPC: 1.23678 cumulative IPC: 1.68088 (Simulation time: 0 hr 23 min 43 sec) 
Heartbeat CPU 0 instructions: 590000000 cycles: 282380726 heartbeat IPC: 1.69335 cumulative IPC: 1.6812 (Simulation time: 0 hr 24 min 10 sec) 
Heartbeat CPU 0 instructions: 600000003 cycles: 289443177 heartbeat IPC: 1.41594 cumulative IPC: 1.67336 (Simulation time: 0 hr 24 min 35 sec) 
Heartbeat CPU 0 instructions: 610000003 cycles: 296282755 heartbeat IPC: 1.46208 cumulative IPC: 1.66749 (Simulation time: 0 hr 25 min 0 sec) 
Heartbeat CPU 0 instructions: 620000003 cycles: 300942212 heartbeat IPC: 2.14617 cumulative IPC: 1.67639 (Simulation time: 0 hr 25 min 29 sec) 
Heartbeat CPU 0 instructions: 630000001 cycles: 308151813 heartbeat IPC: 1.38704 cumulative IPC: 1.6683 (Simulation time: 0 hr 25 min 54 sec) 
Heartbeat CPU 0 instructions: 640000000 cycles: 315772818 heartbeat IPC: 1.31216 cumulative IPC: 1.65807 (Simulation time: 0 hr 26 min 18 sec) 
Heartbeat CPU 0 instructions: 650000001 cycles: 321873017 heartbeat IPC: 1.63929 cumulative IPC: 1.65765 (Simulation time: 0 hr 26 min 44 sec) 
Heartbeat CPU 0 instructions: 660000001 cycles: 329062694 heartbeat IPC: 1.39088 cumulative IPC: 1.65076 (Simulation time: 0 hr 27 min 9 sec) 
Heartbeat CPU 0 instructions: 670000001 cycles: 333895776 heartbeat IPC: 2.06907 cumulative IPC: 1.65789 (Simulation time: 0 hr 27 min 37 sec) 
Heartbeat CPU 0 instructions: 680000000 cycles: 341497143 heartbeat IPC: 1.31555 cumulative IPC: 1.64895 (Simulation time: 0 hr 28 min 0 sec) 
Heartbeat CPU 0 instructions: 690000001 cycles: 348126514 heartbeat IPC: 1.50844 cumulative IPC: 1.64583 (Simulation time: 0 hr 28 min 24 sec) 
Heartbeat CPU 0 instructions: 700000001 cycles: 354175011 heartbeat IPC: 1.6533 cumulative IPC: 1.64597 (Simulation time: 0 hr 28 min 49 sec) 
Finished CPU 0 instructions: 500000002 cycles: 303771377 cumulative IPC: 1.64597 (Simulation time: 0 hr 28 min 49 sec) 

ChampSim completed all CPUs

Region of Interest Statistics

CPU 0 cumulative IPC: 1.64597 instructions: 500000002 cycles: 303771377
cpu0_L1I TOTAL     ACCESS:   24832165  HIT:   24832060  MISS:        105
cpu0_L1I LOAD      ACCESS:   24832165  HIT:   24832060  MISS:        105
cpu0_L1I RFO       ACCESS:          0  HIT:          0  MISS:          0
cpu0_L1I PREFETCH  ACCESS:          0  HIT:          0  MISS:          0
cpu0_L1I WRITEBACK ACCESS:          0  HIT:          0  MISS:          0
cpu0_L1I TRANSLATION ACCESS:          0  HIT:          0  MISS:          0
cpu0_L1I PREFETCH  REQUESTED:          0  ISSUED:          0  USEFUL:          0  USELESS:          0
cpu0_L1I AVERAGE MISS LATENCY: 112.114 cycles
cpu0_DTLB TOTAL     ACCESS:   86888056  HIT:   85410397  MISS:    1477659
cpu0_DTLB LOAD      ACCESS:   63031443  HIT:   61715819  MISS:    1315624
cpu0_DTLB RFO       ACCESS:   23856613  HIT:   23694578  MISS:     162035
cpu0_DTLB PREFETCH  ACCESS:          0  HIT:          0  MISS:          0
cpu0_DTLB WRITEBACK ACCESS:          0  HIT:          0  MISS:          0
cpu0_DTLB TRANSLATION ACCESS:          0  HIT:          0  MISS:          0
cpu0_DTLB PREFETCH  REQUESTED:          0  ISSUED:          0  USEFUL:          0  USELESS:          0
cpu0_DTLB AVERAGE MISS LATENCY: 10.9466 cycles
cpu0_ITLB TOTAL     ACCESS:   33745226  HIT:   33745221  MISS:          5
cpu0_ITLB LOAD      ACCESS:   33745226  HIT:   33745221  MISS:          5
cpu0_ITLB RFO       ACCESS:          0  HIT:          0  MISS:          0
cpu0_ITLB PREFETCH  ACCESS:          0  HIT:          0  MISS:          0
cpu0_ITLB WRITEBACK ACCESS:          0  HIT:          0  MISS:          0
cpu0_ITLB TRANSLATION ACCESS:          0  HIT:          0  MISS:          0
cpu0_ITLB PREFETCH  REQUESTED:          0  ISSUED:          0  USEFUL:          0  USELESS:          0
cpu0_ITLB AVERAGE MISS LATENCY: 217 cycles
cpu0_STLB TOTAL     ACCESS:    1477664  HIT:    1417532  MISS:      60132
cpu0_STLB LOAD      ACCESS:    1315629  HIT:    1302607  MISS:      13022
cpu0_STLB RFO       ACCESS:     162035  HIT:     114925  MISS:      47110
cpu0_STLB PREFETCH  ACCESS:          0  HIT:          0  MISS:          0
cpu0_STLB WRITEBACK ACCESS:          0  HIT:          0  MISS:          0
cpu0_STLB TRANSLATION ACCESS:          0  HIT:          0  MISS:          0
cpu0_STLB PREFETCH  REQUESTED:          0  ISSUED:          0  USEFUL:          0  USELESS:          0
cpu0_STLB AVERAGE MISS LATENCY: 47.6431 cycles
cpu0_L1D TOTAL     ACCESS:   94268187  HIT:   93450880  MISS:     817307
cpu0_L1D LOAD      ACCESS:   56032717  HIT:   55834892  MISS:     197825
cpu0_L1D RFO       ACCESS:   38176111  HIT:   37556649  MISS:     619462
cpu0_L1D PREFETCH  ACCESS:          0  HIT:          0  MISS:          0
cpu0_L1D WRITEBACK ACCESS:          0  HIT:          0  MISS:          0
cpu0_L1D TRANSLATION ACCESS:      59359  HIT:      59339  MISS:         20
cpu0_L1D PREFETCH  REQUESTED:          0  ISSUED:          0  USEFUL:          0  USELESS:          0
cpu0_L1D AVERAGE MISS LATENCY: 52.4722 cycles
cpu0_L2C TOTAL     ACCESS:    1559130  HIT:    1347596  MISS:     211534
cpu0_L2C LOAD      ACCESS:     197930  HIT:     156935  MISS:      40995
cpu0_L2C RFO       ACCESS:     619462  HIT:     448923  MISS:     170539
cpu0_L2C PREFETCH  ACCESS:          0  HIT:          0  MISS:          0
cpu0_L2C WRITEBACK ACCESS:     741718  HIT:     741718  MISS:          0
cpu0_L2C TRANSLATION ACCESS:         20  HIT:         20  MISS:          0
cpu0_L2C PREFETCH  REQUESTED:          0  ISSUED:          0  USEFUL:          0  USELESS:          0
cpu0_L2C AVERAGE MISS LATENCY: 160.258 cycles
LLC TOTAL     ACCESS:     251751  HIT:      13894  MISS:     237857
LLC LOAD      ACCESS:      40995  HIT:       8604  MISS:      32391
LLC RFO       ACCESS:     170539  HIT:        441  MISS:     170098
LLC PREFETCH  ACCESS:      40208  HIT:       4849  MISS:      35359
LLC WRITEBACK ACCESS:          9  HIT:          0  MISS:          9
LLC TRANSLATION ACCESS:          0  HIT:          0  MISS:          0
LLC PREFETCH  REQUESTED:      40995  ISSUED:      40995  USEFUL:       9694  USELESS:      27355
LLC AVERAGE MISS LATENCY: 150.128 cycles

DRAM Statistics
 CHANNEL 0
 RQ ROW_BUFFER_HIT:      60209  ROW_BUFFER_MISS:     177639
 DBUS AVG_CONGESTED_CYCLE:    3.62412
 WQ ROW_BUFFER_HIT:          0  ROW_BUFFER_MISS:          2  FULL:          0


CPU 0 Branch Prediction Accuracy: 96.4731% MPKI: 8.83029 Average ROB Occupancy at Mispredict: 32.7908
Branch type MPKI
BRANCH_DIRECT_JUMP: 3.8e-05
BRANCH_INDIRECT: 0.273812
BRANCH_CONDITIONAL: 7.02868
BRANCH_DIRECT_CALL: 0.000274
BRANCH_INDIRECT_CALL: 0.323776
BRANCH_RETURN: 1.20371

