/home/caslab/workspace/sim/ChampSim/bin/champsim --warmup_instructions 200000000 --simulation_instructions 500000000/ /home/caslab/workspace/sim/traces/speccpu_by_champsim483.xalancbmk-127B.champsimtrace.xz
start simulation for 483.xalancbmk-127B.champsimtrace.xz

*** ChampSim Multicore Out-of-Order Simulator ***

Warmup Instructions: 200000000
Simulation Instructions: 500000000
Number of CPUs: 1
Off-chip DRAM Size: 4 GiB Channels: 1 Width: 64-bit Data Rate: 3200 MT/s

VirtualMemory physical capacity: 8588881920 num_ppages: 2096895
VirtualMemory page size: 4096 log2_page_size: 12

CPU 0 runs /home/caslab/workspace/sim/traces/speccpu_by_champsim/483.xalancbmk-127B.champsimtrace.xz
CPU 0 Bimodal branch predictor
Basic BTB sets: 1024 ways: 8 indirect buffer size: 4096 RAS size: 64
LLC next line prefetcher
WARNING: The extended signature CACHE::prefetch_line(ip, base_addr, pf_addr, fill_this_level, prefetch_metadata) is deprecated.
WARNING: Use CACHE::prefetch_line(pf_addr, fill_this_level, prefetch_metadata) instead.
Heartbeat CPU 0 instructions: 10000000 cycles: 2862861 heartbeat IPC: 3.49301 cumulative IPC: 3.49301 (Simulation time: 0 hr 0 min 27 sec) 
Heartbeat CPU 0 instructions: 20000000 cycles: 5721495 heartbeat IPC: 3.49817 cumulative IPC: 3.49559 (Simulation time: 0 hr 0 min 55 sec) 
Heartbeat CPU 0 instructions: 30000000 cycles: 8577269 heartbeat IPC: 3.50168 cumulative IPC: 3.49762 (Simulation time: 0 hr 1 min 22 sec) 
Heartbeat CPU 0 instructions: 40000002 cycles: 11456201 heartbeat IPC: 3.47351 cumulative IPC: 3.49156 (Simulation time: 0 hr 1 min 49 sec) 
Heartbeat CPU 0 instructions: 50000001 cycles: 14306496 heartbeat IPC: 3.50841 cumulative IPC: 3.49492 (Simulation time: 0 hr 2 min 16 sec) 
Heartbeat CPU 0 instructions: 60000001 cycles: 17170612 heartbeat IPC: 3.49148 cumulative IPC: 3.49434 (Simulation time: 0 hr 2 min 43 sec) 
Heartbeat CPU 0 instructions: 70000001 cycles: 20025043 heartbeat IPC: 3.50333 cumulative IPC: 3.49562 (Simulation time: 0 hr 3 min 10 sec) 
Heartbeat CPU 0 instructions: 80000004 cycles: 22890983 heartbeat IPC: 3.48926 cumulative IPC: 3.49483 (Simulation time: 0 hr 3 min 37 sec) 
Heartbeat CPU 0 instructions: 90000001 cycles: 25727862 heartbeat IPC: 3.525 cumulative IPC: 3.49815 (Simulation time: 0 hr 4 min 4 sec) 
Heartbeat CPU 0 instructions: 100000001 cycles: 28568860 heartbeat IPC: 3.51989 cumulative IPC: 3.50031 (Simulation time: 0 hr 4 min 31 sec) 
Heartbeat CPU 0 instructions: 110000000 cycles: 31415662 heartbeat IPC: 3.51271 cumulative IPC: 3.50144 (Simulation time: 0 hr 4 min 58 sec) 
Heartbeat CPU 0 instructions: 120000004 cycles: 34263870 heartbeat IPC: 3.51098 cumulative IPC: 3.50223 (Simulation time: 0 hr 5 min 25 sec) 
Heartbeat CPU 0 instructions: 130000000 cycles: 37106997 heartbeat IPC: 3.51725 cumulative IPC: 3.50338 (Simulation time: 0 hr 5 min 51 sec) 
Heartbeat CPU 0 instructions: 140000000 cycles: 39987774 heartbeat IPC: 3.47129 cumulative IPC: 3.50107 (Simulation time: 0 hr 6 min 19 sec) 
Heartbeat CPU 0 instructions: 150000002 cycles: 42833603 heartbeat IPC: 3.51392 cumulative IPC: 3.50192 (Simulation time: 0 hr 6 min 46 sec) 
Heartbeat CPU 0 instructions: 160000004 cycles: 45702076 heartbeat IPC: 3.48618 cumulative IPC: 3.50094 (Simulation time: 0 hr 7 min 13 sec) 
Heartbeat CPU 0 instructions: 170000001 cycles: 48562336 heartbeat IPC: 3.49618 cumulative IPC: 3.50066 (Simulation time: 0 hr 7 min 40 sec) 
Heartbeat CPU 0 instructions: 180000001 cycles: 51425509 heartbeat IPC: 3.49263 cumulative IPC: 3.50021 (Simulation time: 0 hr 8 min 7 sec) 
Heartbeat CPU 0 instructions: 190000004 cycles: 54254041 heartbeat IPC: 3.5354 cumulative IPC: 3.50204 (Simulation time: 0 hr 8 min 34 sec) 
Heartbeat CPU 0 instructions: 200000001 cycles: 57108863 heartbeat IPC: 3.50284 cumulative IPC: 3.50208 (Simulation time: 0 hr 9 min 1 sec) 

Warmup complete CPU 0 instructions: 200000001 cycles: 57108863 (Simulation time: 0 hr 9 min 1 sec) 

Heartbeat CPU 0 instructions: 210000000 cycles: 68099614 heartbeat IPC: 0.909856 cumulative IPC: 0.909856 (Simulation time: 0 hr 9 min 22 sec) 
Heartbeat CPU 0 instructions: 220000001 cycles: 78799584 heartbeat IPC: 0.934582 cumulative IPC: 0.922053 (Simulation time: 0 hr 9 min 42 sec) 
Heartbeat CPU 0 instructions: 230000000 cycles: 89353725 heartbeat IPC: 0.947495 cumulative IPC: 0.930381 (Simulation time: 0 hr 10 min 3 sec) 
Heartbeat CPU 0 instructions: 240000000 cycles: 100086365 heartbeat IPC: 0.931737 cumulative IPC: 0.930719 (Simulation time: 0 hr 10 min 24 sec) 
Heartbeat CPU 0 instructions: 250000000 cycles: 110862220 heartbeat IPC: 0.928001 cumulative IPC: 0.930174 (Simulation time: 0 hr 10 min 44 sec) 
Heartbeat CPU 0 instructions: 260000001 cycles: 121419753 heartbeat IPC: 0.947191 cumulative IPC: 0.932968 (Simulation time: 0 hr 11 min 4 sec) 
Heartbeat CPU 0 instructions: 270000001 cycles: 132443300 heartbeat IPC: 0.907149 cumulative IPC: 0.92919 (Simulation time: 0 hr 11 min 24 sec) 
Heartbeat CPU 0 instructions: 280000001 cycles: 143436995 heartbeat IPC: 0.909612 cumulative IPC: 0.926697 (Simulation time: 0 hr 11 min 45 sec) 
Heartbeat CPU 0 instructions: 290000002 cycles: 154318501 heartbeat IPC: 0.918991 cumulative IPC: 0.925834 (Simulation time: 0 hr 12 min 5 sec) 
Heartbeat CPU 0 instructions: 300000001 cycles: 165330442 heartbeat IPC: 0.908105 cumulative IPC: 0.92403 (Simulation time: 0 hr 12 min 25 sec) 
Heartbeat CPU 0 instructions: 310000000 cycles: 176078595 heartbeat IPC: 0.930392 cumulative IPC: 0.924605 (Simulation time: 0 hr 12 min 46 sec) 
Heartbeat CPU 0 instructions: 320000000 cycles: 187164514 heartbeat IPC: 0.902045 cumulative IPC: 0.922682 (Simulation time: 0 hr 13 min 7 sec) 
Heartbeat CPU 0 instructions: 330000000 cycles: 197971791 heartbeat IPC: 0.925302 cumulative IPC: 0.922883 (Simulation time: 0 hr 13 min 28 sec) 
Heartbeat CPU 0 instructions: 340000002 cycles: 208812314 heartbeat IPC: 0.922465 cumulative IPC: 0.922853 (Simulation time: 0 hr 13 min 49 sec) 
Heartbeat CPU 0 instructions: 350000000 cycles: 219105532 heartbeat IPC: 0.971513 cumulative IPC: 0.925945 (Simulation time: 0 hr 14 min 9 sec) 
Heartbeat CPU 0 instructions: 360000002 cycles: 230011944 heartbeat IPC: 0.916892 cumulative IPC: 0.925374 (Simulation time: 0 hr 14 min 30 sec) 
Heartbeat CPU 0 instructions: 370000002 cycles: 240769547 heartbeat IPC: 0.929575 cumulative IPC: 0.92562 (Simulation time: 0 hr 14 min 51 sec) 
Heartbeat CPU 0 instructions: 380000000 cycles: 251811547 heartbeat IPC: 0.905633 cumulative IPC: 0.924486 (Simulation time: 0 hr 15 min 12 sec) 
Heartbeat CPU 0 instructions: 390000000 cycles: 262554327 heartbeat IPC: 0.930858 cumulative IPC: 0.92482 (Simulation time: 0 hr 15 min 33 sec) 
Heartbeat CPU 0 instructions: 400000004 cycles: 273638313 heartbeat IPC: 0.902203 cumulative IPC: 0.923662 (Simulation time: 0 hr 15 min 53 sec) 
Heartbeat CPU 0 instructions: 410000000 cycles: 284479969 heartbeat IPC: 0.922368 cumulative IPC: 0.9236 (Simulation time: 0 hr 16 min 14 sec) 
Heartbeat CPU 0 instructions: 420000003 cycles: 295396031 heartbeat IPC: 0.916082 cumulative IPC: 0.923256 (Simulation time: 0 hr 16 min 35 sec) 
Heartbeat CPU 0 instructions: 430000003 cycles: 306370468 heartbeat IPC: 0.911208 cumulative IPC: 0.922725 (Simulation time: 0 hr 16 min 55 sec) 
Heartbeat CPU 0 instructions: 440000002 cycles: 317069650 heartbeat IPC: 0.934651 cumulative IPC: 0.923216 (Simulation time: 0 hr 17 min 16 sec) 
Heartbeat CPU 0 instructions: 450000003 cycles: 328016903 heartbeat IPC: 0.913471 cumulative IPC: 0.922822 (Simulation time: 0 hr 17 min 37 sec) 
Heartbeat CPU 0 instructions: 460000000 cycles: 338948338 heartbeat IPC: 0.914793 cumulative IPC: 0.922511 (Simulation time: 0 hr 17 min 57 sec) 
Heartbeat CPU 0 instructions: 470000000 cycles: 349778530 heartbeat IPC: 0.923345 cumulative IPC: 0.922542 (Simulation time: 0 hr 18 min 18 sec) 
Heartbeat CPU 0 instructions: 480000000 cycles: 360526758 heartbeat IPC: 0.930386 cumulative IPC: 0.92282 (Simulation time: 0 hr 18 min 41 sec) 
Heartbeat CPU 0 instructions: 490000004 cycles: 371471715 heartbeat IPC: 0.913663 cumulative IPC: 0.922501 (Simulation time: 0 hr 19 min 3 sec) 
Heartbeat CPU 0 instructions: 500000001 cycles: 382429019 heartbeat IPC: 0.912633 cumulative IPC: 0.922168 (Simulation time: 0 hr 19 min 23 sec) 
Heartbeat CPU 0 instructions: 510000001 cycles: 393315046 heartbeat IPC: 0.918609 cumulative IPC: 0.922053 (Simulation time: 0 hr 19 min 43 sec) 
Heartbeat CPU 0 instructions: 520000000 cycles: 404087958 heartbeat IPC: 0.928254 cumulative IPC: 0.922246 (Simulation time: 0 hr 20 min 3 sec) 
Heartbeat CPU 0 instructions: 530000001 cycles: 414938006 heartbeat IPC: 0.921655 cumulative IPC: 0.922228 (Simulation time: 0 hr 20 min 24 sec) 
Heartbeat CPU 0 instructions: 540000001 cycles: 425811288 heartbeat IPC: 0.919686 cumulative IPC: 0.922153 (Simulation time: 0 hr 20 min 45 sec) 
Heartbeat CPU 0 instructions: 550000000 cycles: 436637358 heartbeat IPC: 0.923696 cumulative IPC: 0.922197 (Simulation time: 0 hr 21 min 6 sec) 
Heartbeat CPU 0 instructions: 560000000 cycles: 447544854 heartbeat IPC: 0.916801 cumulative IPC: 0.922046 (Simulation time: 0 hr 21 min 27 sec) 
Heartbeat CPU 0 instructions: 570000000 cycles: 458282582 heartbeat IPC: 0.931296 cumulative IPC: 0.922294 (Simulation time: 0 hr 21 min 47 sec) 
Heartbeat CPU 0 instructions: 580000002 cycles: 469203717 heartbeat IPC: 0.915656 cumulative IPC: 0.922118 (Simulation time: 0 hr 22 min 7 sec) 
Heartbeat CPU 0 instructions: 590000000 cycles: 480017905 heartbeat IPC: 0.924711 cumulative IPC: 0.922184 (Simulation time: 0 hr 22 min 27 sec) 
Heartbeat CPU 0 instructions: 600000000 cycles: 490755079 heartbeat IPC: 0.931344 cumulative IPC: 0.922411 (Simulation time: 0 hr 22 min 47 sec) 
Heartbeat CPU 0 instructions: 610000001 cycles: 501520133 heartbeat IPC: 0.928932 cumulative IPC: 0.922569 (Simulation time: 0 hr 23 min 8 sec) 
Heartbeat CPU 0 instructions: 620000000 cycles: 511964515 heartbeat IPC: 0.957452 cumulative IPC: 0.92337 (Simulation time: 0 hr 23 min 29 sec) 
Heartbeat CPU 0 instructions: 630000003 cycles: 522820430 heartbeat IPC: 0.921157 cumulative IPC: 0.923318 (Simulation time: 0 hr 23 min 51 sec) 
Heartbeat CPU 0 instructions: 640000000 cycles: 533326362 heartbeat IPC: 0.951843 cumulative IPC: 0.923948 (Simulation time: 0 hr 24 min 12 sec) 
Heartbeat CPU 0 instructions: 650000003 cycles: 544023348 heartbeat IPC: 0.934843 cumulative IPC: 0.924187 (Simulation time: 0 hr 24 min 33 sec) 
Heartbeat CPU 0 instructions: 660000001 cycles: 554541932 heartbeat IPC: 0.950698 cumulative IPC: 0.924748 (Simulation time: 0 hr 24 min 54 sec) 
Heartbeat CPU 0 instructions: 670000000 cycles: 565220815 heartbeat IPC: 0.936427 cumulative IPC: 0.924993 (Simulation time: 0 hr 25 min 15 sec) 
Heartbeat CPU 0 instructions: 680000001 cycles: 576101480 heartbeat IPC: 0.919062 cumulative IPC: 0.924869 (Simulation time: 0 hr 25 min 36 sec) 
Heartbeat CPU 0 instructions: 690000002 cycles: 586756016 heartbeat IPC: 0.938567 cumulative IPC: 0.925144 (Simulation time: 0 hr 25 min 58 sec) 
Heartbeat CPU 0 instructions: 700000000 cycles: 597113619 heartbeat IPC: 0.965474 cumulative IPC: 0.925918 (Simulation time: 0 hr 26 min 18 sec) 
Finished CPU 0 instructions: 500000002 cycles: 540004759 cumulative IPC: 0.925918 (Simulation time: 0 hr 26 min 18 sec) 

ChampSim completed all CPUs

Region of Interest Statistics

CPU 0 cumulative IPC: 0.925918 instructions: 500000002 cycles: 540004759
cpu0_L1I TOTAL     ACCESS:    3659007  HIT:    3658992  MISS:         15
cpu0_L1I LOAD      ACCESS:    3659007  HIT:    3658992  MISS:         15
cpu0_L1I RFO       ACCESS:          0  HIT:          0  MISS:          0
cpu0_L1I PREFETCH  ACCESS:          0  HIT:          0  MISS:          0
cpu0_L1I WRITEBACK ACCESS:          0  HIT:          0  MISS:          0
cpu0_L1I TRANSLATION ACCESS:          0  HIT:          0  MISS:          0
cpu0_L1I PREFETCH  REQUESTED:          0  ISSUED:          0  USEFUL:          0  USELESS:          0
cpu0_L1I AVERAGE MISS LATENCY: 111.533 cycles
cpu0_DTLB TOTAL     ACCESS:  109812787  HIT:  107882919  MISS:    1929868
cpu0_DTLB LOAD      ACCESS:  101219446  HIT:   99305686  MISS:    1913760
cpu0_DTLB RFO       ACCESS:    8593341  HIT:    8577233  MISS:      16108
cpu0_DTLB PREFETCH  ACCESS:          0  HIT:          0  MISS:          0
cpu0_DTLB WRITEBACK ACCESS:          0  HIT:          0  MISS:          0
cpu0_DTLB TRANSLATION ACCESS:          0  HIT:          0  MISS:          0
cpu0_DTLB PREFETCH  REQUESTED:          0  ISSUED:          0  USEFUL:          0  USELESS:          0
cpu0_DTLB AVERAGE MISS LATENCY: 16.9381 cycles
cpu0_ITLB TOTAL     ACCESS:   67957775  HIT:   67957774  MISS:          1
cpu0_ITLB LOAD      ACCESS:   67957775  HIT:   67957774  MISS:          1
cpu0_ITLB RFO       ACCESS:          0  HIT:          0  MISS:          0
cpu0_ITLB PREFETCH  ACCESS:          0  HIT:          0  MISS:          0
cpu0_ITLB WRITEBACK ACCESS:          0  HIT:          0  MISS:          0
cpu0_ITLB TRANSLATION ACCESS:          0  HIT:          0  MISS:          0
cpu0_ITLB PREFETCH  REQUESTED:          0  ISSUED:          0  USEFUL:          0  USELESS:          0
cpu0_ITLB AVERAGE MISS LATENCY: 228 cycles
cpu0_STLB TOTAL     ACCESS:    1929869  HIT:    1342792  MISS:     587077
cpu0_STLB LOAD      ACCESS:    1913761  HIT:    1327624  MISS:     586137
cpu0_STLB RFO       ACCESS:      16108  HIT:      15168  MISS:        940
cpu0_STLB PREFETCH  ACCESS:          0  HIT:          0  MISS:          0
cpu0_STLB WRITEBACK ACCESS:          0  HIT:          0  MISS:          0
cpu0_STLB TRANSLATION ACCESS:          0  HIT:          0  MISS:          0
cpu0_STLB PREFETCH  REQUESTED:          0  ISSUED:          0  USEFUL:          0  USELESS:          0
cpu0_STLB AVERAGE MISS LATENCY: 25.693 cycles
cpu0_L1D TOTAL     ACCESS:   95427911  HIT:   83126759  MISS:   12301152
cpu0_L1D LOAD      ACCESS:   77929977  HIT:   65672170  MISS:   12257807
cpu0_L1D RFO       ACCESS:   17011602  HIT:   16969740  MISS:      41862
cpu0_L1D PREFETCH  ACCESS:          0  HIT:          0  MISS:          0
cpu0_L1D WRITEBACK ACCESS:          0  HIT:          0  MISS:          0
cpu0_L1D TRANSLATION ACCESS:     486332  HIT:     484849  MISS:       1483
cpu0_L1D PREFETCH  REQUESTED:          0  ISSUED:          0  USEFUL:          0  USELESS:          0
cpu0_L1D AVERAGE MISS LATENCY: 16.5708 cycles
cpu0_L2C TOTAL     ACCESS:   12365085  HIT:   12272725  MISS:      92360
cpu0_L2C LOAD      ACCESS:   12257822  HIT:   12173267  MISS:      84555
cpu0_L2C RFO       ACCESS:      41862  HIT:      34057  MISS:       7805
cpu0_L2C PREFETCH  ACCESS:          0  HIT:          0  MISS:          0
cpu0_L2C WRITEBACK ACCESS:      63918  HIT:      63918  MISS:          0
cpu0_L2C TRANSLATION ACCESS:       1483  HIT:       1483  MISS:          0
cpu0_L2C PREFETCH  REQUESTED:          0  ISSUED:          0  USEFUL:          0  USELESS:          0
cpu0_L2C AVERAGE MISS LATENCY: 719.069 cycles
LLC TOTAL     ACCESS:     165627  HIT:      15819  MISS:     149808
LLC LOAD      ACCESS:      84555  HIT:       9708  MISS:      74847
LLC RFO       ACCESS:       7805  HIT:         52  MISS:       7753
LLC PREFETCH  ACCESS:      73255  HIT:       6057  MISS:      67198
LLC WRITEBACK ACCESS:         12  HIT:          2  MISS:         10
LLC TRANSLATION ACCESS:          0  HIT:          0  MISS:          0
LLC PREFETCH  REQUESTED:      84555  ISSUED:      84555  USEFUL:      14646  USELESS:      58491
LLC AVERAGE MISS LATENCY: 849.925 cycles

DRAM Statistics
 CHANNEL 0
 RQ ROW_BUFFER_HIT:       8526  ROW_BUFFER_MISS:     141272
 DBUS AVG_CONGESTED_CYCLE:    3.96467
 WQ ROW_BUFFER_HIT:          4  ROW_BUFFER_MISS:          4  FULL:          0


CPU 0 Branch Prediction Accuracy: 91.4552% MPKI: 24.3616 Average ROB Occupancy at Mispredict: 22.8236
Branch type MPKI
BRANCH_DIRECT_JUMP: 1e-05
BRANCH_INDIRECT: 0.006638
BRANCH_CONDITIONAL: 24.2544
BRANCH_DIRECT_CALL: 1.6e-05
BRANCH_INDIRECT_CALL: 0.023758
BRANCH_RETURN: 0.07675

