/home/caslab/workspace/sim/ChampSim/bin/champsim --warmup_instructions 200000000 --simulation_instructions 500000000/ /home/caslab/workspace/sim/traces/speccpu_by_champsim483.xalancbmk-736B.champsimtrace.xz
start simulation for 483.xalancbmk-736B.champsimtrace.xz

*** ChampSim Multicore Out-of-Order Simulator ***

Warmup Instructions: 200000000
Simulation Instructions: 500000000
Number of CPUs: 1
Off-chip DRAM Size: 4 GiB Channels: 1 Width: 64-bit Data Rate: 3200 MT/s

VirtualMemory physical capacity: 8588881920 num_ppages: 2096895
VirtualMemory page size: 4096 log2_page_size: 12

CPU 0 runs /home/caslab/workspace/sim/traces/speccpu_by_champsim/483.xalancbmk-736B.champsimtrace.xz
CPU 0 Bimodal branch predictor
Basic BTB sets: 1024 ways: 8 indirect buffer size: 4096 RAS size: 64
LLC next line prefetcher
WARNING: The extended signature CACHE::prefetch_line(ip, base_addr, pf_addr, fill_this_level, prefetch_metadata) is deprecated.
WARNING: Use CACHE::prefetch_line(pf_addr, fill_this_level, prefetch_metadata) instead.
Heartbeat CPU 0 instructions: 10000002 cycles: 2625288 heartbeat IPC: 3.80911 cumulative IPC: 3.80911 (Simulation time: 0 hr 0 min 22 sec) 
Heartbeat CPU 0 instructions: 20000002 cycles: 5253809 heartbeat IPC: 3.80442 cumulative IPC: 3.80676 (Simulation time: 0 hr 0 min 43 sec) 
Heartbeat CPU 0 instructions: 30000000 cycles: 7883124 heartbeat IPC: 3.80327 cumulative IPC: 3.8056 (Simulation time: 0 hr 1 min 4 sec) 
Heartbeat CPU 0 instructions: 40000000 cycles: 10441272 heartbeat IPC: 3.90908 cumulative IPC: 3.83095 (Simulation time: 0 hr 1 min 24 sec) 
Heartbeat CPU 0 instructions: 50000000 cycles: 12941272 heartbeat IPC: 4 cumulative IPC: 3.86361 (Simulation time: 0 hr 1 min 42 sec) 
Heartbeat CPU 0 instructions: 60000000 cycles: 15441272 heartbeat IPC: 4 cumulative IPC: 3.88569 (Simulation time: 0 hr 2 min 1 sec) 
Heartbeat CPU 0 instructions: 70000000 cycles: 17941272 heartbeat IPC: 4 cumulative IPC: 3.90162 (Simulation time: 0 hr 2 min 19 sec) 
Heartbeat CPU 0 instructions: 80000000 cycles: 20441272 heartbeat IPC: 4 cumulative IPC: 3.91365 (Simulation time: 0 hr 2 min 38 sec) 
Heartbeat CPU 0 instructions: 90000000 cycles: 22941272 heartbeat IPC: 4 cumulative IPC: 3.92306 (Simulation time: 0 hr 2 min 57 sec) 
Heartbeat CPU 0 instructions: 100000000 cycles: 25441272 heartbeat IPC: 4 cumulative IPC: 3.93062 (Simulation time: 0 hr 3 min 16 sec) 
Heartbeat CPU 0 instructions: 110000000 cycles: 27941272 heartbeat IPC: 4 cumulative IPC: 3.93683 (Simulation time: 0 hr 3 min 34 sec) 
Heartbeat CPU 0 instructions: 120000000 cycles: 30441272 heartbeat IPC: 4 cumulative IPC: 3.94202 (Simulation time: 0 hr 3 min 53 sec) 
Heartbeat CPU 0 instructions: 130000000 cycles: 32941272 heartbeat IPC: 4 cumulative IPC: 3.94642 (Simulation time: 0 hr 4 min 12 sec) 
Heartbeat CPU 0 instructions: 140000000 cycles: 35441272 heartbeat IPC: 4 cumulative IPC: 3.9502 (Simulation time: 0 hr 4 min 30 sec) 
Heartbeat CPU 0 instructions: 150000000 cycles: 37941272 heartbeat IPC: 4 cumulative IPC: 3.95348 (Simulation time: 0 hr 4 min 49 sec) 
Heartbeat CPU 0 instructions: 160000000 cycles: 40441272 heartbeat IPC: 4 cumulative IPC: 3.95635 (Simulation time: 0 hr 5 min 8 sec) 
Heartbeat CPU 0 instructions: 170000000 cycles: 42941272 heartbeat IPC: 4 cumulative IPC: 3.9589 (Simulation time: 0 hr 5 min 26 sec) 
Heartbeat CPU 0 instructions: 180000000 cycles: 45441272 heartbeat IPC: 4 cumulative IPC: 3.96116 (Simulation time: 0 hr 5 min 45 sec) 
Heartbeat CPU 0 instructions: 190000003 cycles: 47945758 heartbeat IPC: 3.99284 cumulative IPC: 3.96281 (Simulation time: 0 hr 6 min 6 sec) 
Heartbeat CPU 0 instructions: 200000002 cycles: 50455691 heartbeat IPC: 3.98417 cumulative IPC: 3.96387 (Simulation time: 0 hr 6 min 27 sec) 

Warmup complete CPU 0 instructions: 200000002 cycles: 50455691 (Simulation time: 0 hr 6 min 27 sec) 

Heartbeat CPU 0 instructions: 210000000 cycles: 57994370 heartbeat IPC: 1.32649 cumulative IPC: 1.32649 (Simulation time: 0 hr 6 min 52 sec) 
Heartbeat CPU 0 instructions: 220000003 cycles: 64300668 heartbeat IPC: 1.58572 cumulative IPC: 1.44457 (Simulation time: 0 hr 7 min 19 sec) 
Heartbeat CPU 0 instructions: 230000000 cycles: 71672716 heartbeat IPC: 1.35647 cumulative IPC: 1.41396 (Simulation time: 0 hr 7 min 45 sec) 
Heartbeat CPU 0 instructions: 240000002 cycles: 78859562 heartbeat IPC: 1.39143 cumulative IPC: 1.40826 (Simulation time: 0 hr 8 min 11 sec) 
Heartbeat CPU 0 instructions: 250000001 cycles: 86103598 heartbeat IPC: 1.38045 cumulative IPC: 1.40261 (Simulation time: 0 hr 8 min 37 sec) 
Heartbeat CPU 0 instructions: 260000001 cycles: 91854286 heartbeat IPC: 1.73892 cumulative IPC: 1.44932 (Simulation time: 0 hr 9 min 5 sec) 
Heartbeat CPU 0 instructions: 270000000 cycles: 97020686 heartbeat IPC: 1.93558 cumulative IPC: 1.50328 (Simulation time: 0 hr 9 min 34 sec) 
Heartbeat CPU 0 instructions: 280000002 cycles: 104858976 heartbeat IPC: 1.27579 cumulative IPC: 1.4705 (Simulation time: 0 hr 9 min 58 sec) 
Heartbeat CPU 0 instructions: 290000003 cycles: 111505771 heartbeat IPC: 1.50448 cumulative IPC: 1.4742 (Simulation time: 0 hr 10 min 23 sec) 
Heartbeat CPU 0 instructions: 300000004 cycles: 116243685 heartbeat IPC: 2.11063 cumulative IPC: 1.52003 (Simulation time: 0 hr 10 min 52 sec) 
Heartbeat CPU 0 instructions: 310000001 cycles: 122423372 heartbeat IPC: 1.6182 cumulative IPC: 1.52846 (Simulation time: 0 hr 11 min 18 sec) 
Heartbeat CPU 0 instructions: 320000004 cycles: 129271511 heartbeat IPC: 1.46025 cumulative IPC: 1.52254 (Simulation time: 0 hr 11 min 42 sec) 
Heartbeat CPU 0 instructions: 330000002 cycles: 135498656 heartbeat IPC: 1.60587 cumulative IPC: 1.52864 (Simulation time: 0 hr 12 min 8 sec) 
Heartbeat CPU 0 instructions: 340000002 cycles: 141230391 heartbeat IPC: 1.74467 cumulative IPC: 1.54228 (Simulation time: 0 hr 12 min 34 sec) 
Heartbeat CPU 0 instructions: 350000000 cycles: 145908577 heartbeat IPC: 2.13758 cumulative IPC: 1.57146 (Simulation time: 0 hr 13 min 3 sec) 
Heartbeat CPU 0 instructions: 360000003 cycles: 149775618 heartbeat IPC: 2.58596 cumulative IPC: 1.61096 (Simulation time: 0 hr 13 min 33 sec) 
Heartbeat CPU 0 instructions: 370000003 cycles: 153906665 heartbeat IPC: 2.42069 cumulative IPC: 1.64329 (Simulation time: 0 hr 14 min 3 sec) 
Heartbeat CPU 0 instructions: 380000001 cycles: 160764091 heartbeat IPC: 1.45827 cumulative IPC: 1.63179 (Simulation time: 0 hr 14 min 28 sec) 
Heartbeat CPU 0 instructions: 390000000 cycles: 167710836 heartbeat IPC: 1.43952 cumulative IPC: 1.6204 (Simulation time: 0 hr 14 min 54 sec) 
Heartbeat CPU 0 instructions: 400000000 cycles: 175341372 heartbeat IPC: 1.31052 cumulative IPC: 1.60146 (Simulation time: 0 hr 15 min 18 sec) 
Heartbeat CPU 0 instructions: 410000000 cycles: 181921383 heartbeat IPC: 1.51975 cumulative IPC: 1.59737 (Simulation time: 0 hr 15 min 43 sec) 
Heartbeat CPU 0 instructions: 420000002 cycles: 187131545 heartbeat IPC: 1.91933 cumulative IPC: 1.60965 (Simulation time: 0 hr 16 min 11 sec) 
Heartbeat CPU 0 instructions: 430000001 cycles: 191452569 heartbeat IPC: 2.31427 cumulative IPC: 1.63124 (Simulation time: 0 hr 16 min 41 sec) 
Heartbeat CPU 0 instructions: 440000003 cycles: 198330014 heartbeat IPC: 1.45403 cumulative IPC: 1.623 (Simulation time: 0 hr 17 min 4 sec) 
Heartbeat CPU 0 instructions: 450000002 cycles: 204669337 heartbeat IPC: 1.57746 cumulative IPC: 1.62113 (Simulation time: 0 hr 17 min 28 sec) 
Heartbeat CPU 0 instructions: 460000002 cycles: 210542535 heartbeat IPC: 1.70265 cumulative IPC: 1.62412 (Simulation time: 0 hr 17 min 53 sec) 
Heartbeat CPU 0 instructions: 470000003 cycles: 216098409 heartbeat IPC: 1.7999 cumulative IPC: 1.63001 (Simulation time: 0 hr 18 min 20 sec) 
Heartbeat CPU 0 instructions: 480000002 cycles: 221458314 heartbeat IPC: 1.8657 cumulative IPC: 1.6374 (Simulation time: 0 hr 18 min 47 sec) 
Heartbeat CPU 0 instructions: 490000001 cycles: 226628446 heartbeat IPC: 1.93419 cumulative IPC: 1.64611 (Simulation time: 0 hr 19 min 14 sec) 
Heartbeat CPU 0 instructions: 500000001 cycles: 231622190 heartbeat IPC: 2.00251 cumulative IPC: 1.65594 (Simulation time: 0 hr 19 min 41 sec) 
Heartbeat CPU 0 instructions: 510000000 cycles: 235897461 heartbeat IPC: 2.33903 cumulative IPC: 1.67168 (Simulation time: 0 hr 20 min 11 sec) 
Heartbeat CPU 0 instructions: 520000002 cycles: 239586125 heartbeat IPC: 2.71101 cumulative IPC: 1.69195 (Simulation time: 0 hr 20 min 41 sec) 
Heartbeat CPU 0 instructions: 530000000 cycles: 243205596 heartbeat IPC: 2.76283 cumulative IPC: 1.71206 (Simulation time: 0 hr 21 min 12 sec) 
Heartbeat CPU 0 instructions: 540000001 cycles: 246898710 heartbeat IPC: 2.70774 cumulative IPC: 1.73078 (Simulation time: 0 hr 21 min 42 sec) 
Heartbeat CPU 0 instructions: 550000001 cycles: 250662295 heartbeat IPC: 2.65704 cumulative IPC: 1.74819 (Simulation time: 0 hr 22 min 13 sec) 
Heartbeat CPU 0 instructions: 560000002 cycles: 254750006 heartbeat IPC: 2.44636 cumulative IPC: 1.76216 (Simulation time: 0 hr 22 min 43 sec) 
Heartbeat CPU 0 instructions: 570000002 cycles: 260946089 heartbeat IPC: 1.61392 cumulative IPC: 1.7578 (Simulation time: 0 hr 23 min 11 sec) 
Heartbeat CPU 0 instructions: 580000000 cycles: 268718773 heartbeat IPC: 1.28656 cumulative IPC: 1.74102 (Simulation time: 0 hr 23 min 37 sec) 
Heartbeat CPU 0 instructions: 590000000 cycles: 276139659 heartbeat IPC: 1.34755 cumulative IPC: 1.72808 (Simulation time: 0 hr 24 min 2 sec) 
Heartbeat CPU 0 instructions: 600000003 cycles: 283006202 heartbeat IPC: 1.45634 cumulative IPC: 1.72006 (Simulation time: 0 hr 24 min 27 sec) 
Heartbeat CPU 0 instructions: 610000003 cycles: 289237137 heartbeat IPC: 1.6049 cumulative IPC: 1.71705 (Simulation time: 0 hr 24 min 54 sec) 
Heartbeat CPU 0 instructions: 620000003 cycles: 294973595 heartbeat IPC: 1.74324 cumulative IPC: 1.71767 (Simulation time: 0 hr 25 min 21 sec) 
Heartbeat CPU 0 instructions: 630000001 cycles: 299635018 heartbeat IPC: 2.14527 cumulative IPC: 1.72566 (Simulation time: 0 hr 25 min 50 sec) 
Heartbeat CPU 0 instructions: 640000001 cycles: 303507795 heartbeat IPC: 2.58213 cumulative IPC: 1.73877 (Simulation time: 0 hr 26 min 21 sec) 
Heartbeat CPU 0 instructions: 650000001 cycles: 307653343 heartbeat IPC: 2.41223 cumulative IPC: 1.74963 (Simulation time: 0 hr 26 min 51 sec) 
Heartbeat CPU 0 instructions: 660000002 cycles: 313999759 heartbeat IPC: 1.57569 cumulative IPC: 1.74544 (Simulation time: 0 hr 27 min 17 sec) 
Heartbeat CPU 0 instructions: 670000003 cycles: 320609161 heartbeat IPC: 1.513 cumulative IPC: 1.73975 (Simulation time: 0 hr 27 min 41 sec) 
Heartbeat CPU 0 instructions: 680000000 cycles: 326647449 heartbeat IPC: 1.6561 cumulative IPC: 1.73792 (Simulation time: 0 hr 28 min 6 sec) 
Heartbeat CPU 0 instructions: 690000004 cycles: 332342946 heartbeat IPC: 1.75577 cumulative IPC: 1.73828 (Simulation time: 0 hr 28 min 32 sec) 
Heartbeat CPU 0 instructions: 700000003 cycles: 337737899 heartbeat IPC: 1.85358 cumulative IPC: 1.74045 (Simulation time: 0 hr 29 min 0 sec) 
Finished CPU 0 instructions: 500000001 cycles: 287282208 cumulative IPC: 1.74045 (Simulation time: 0 hr 29 min 0 sec) 

ChampSim completed all CPUs

Region of Interest Statistics

CPU 0 cumulative IPC: 1.74045 instructions: 500000001 cycles: 287282208
cpu0_L1I TOTAL     ACCESS:   21337073  HIT:   21336949  MISS:        124
cpu0_L1I LOAD      ACCESS:   21337073  HIT:   21336949  MISS:        124
cpu0_L1I RFO       ACCESS:          0  HIT:          0  MISS:          0
cpu0_L1I PREFETCH  ACCESS:          0  HIT:          0  MISS:          0
cpu0_L1I WRITEBACK ACCESS:          0  HIT:          0  MISS:          0
cpu0_L1I TRANSLATION ACCESS:          0  HIT:          0  MISS:          0
cpu0_L1I PREFETCH  REQUESTED:          0  ISSUED:          0  USEFUL:          0  USELESS:          0
cpu0_L1I AVERAGE MISS LATENCY: 113.613 cycles
cpu0_DTLB TOTAL     ACCESS:   83503420  HIT:   81715210  MISS:    1788210
cpu0_DTLB LOAD      ACCESS:   61467271  HIT:   59826479  MISS:    1640792
cpu0_DTLB RFO       ACCESS:   22036149  HIT:   21888731  MISS:     147418
cpu0_DTLB PREFETCH  ACCESS:          0  HIT:          0  MISS:          0
cpu0_DTLB WRITEBACK ACCESS:          0  HIT:          0  MISS:          0
cpu0_DTLB TRANSLATION ACCESS:          0  HIT:          0  MISS:          0
cpu0_DTLB PREFETCH  REQUESTED:          0  ISSUED:          0  USEFUL:          0  USELESS:          0
cpu0_DTLB AVERAGE MISS LATENCY: 11.0348 cycles
cpu0_ITLB TOTAL     ACCESS:   29601044  HIT:   29601038  MISS:          6
cpu0_ITLB LOAD      ACCESS:   29601044  HIT:   29601038  MISS:          6
cpu0_ITLB RFO       ACCESS:          0  HIT:          0  MISS:          0
cpu0_ITLB PREFETCH  ACCESS:          0  HIT:          0  MISS:          0
cpu0_ITLB WRITEBACK ACCESS:          0  HIT:          0  MISS:          0
cpu0_ITLB TRANSLATION ACCESS:          0  HIT:          0  MISS:          0
cpu0_ITLB PREFETCH  REQUESTED:          0  ISSUED:          0  USEFUL:          0  USELESS:          0
cpu0_ITLB AVERAGE MISS LATENCY: 217 cycles
cpu0_STLB TOTAL     ACCESS:    1788216  HIT:    1727316  MISS:      60900
cpu0_STLB LOAD      ACCESS:    1640798  HIT:    1626440  MISS:      14358
cpu0_STLB RFO       ACCESS:     147418  HIT:     100876  MISS:      46542
cpu0_STLB PREFETCH  ACCESS:          0  HIT:          0  MISS:          0
cpu0_STLB WRITEBACK ACCESS:          0  HIT:          0  MISS:          0
cpu0_STLB TRANSLATION ACCESS:          0  HIT:          0  MISS:          0
cpu0_STLB PREFETCH  REQUESTED:          0  ISSUED:          0  USEFUL:          0  USELESS:          0
cpu0_STLB AVERAGE MISS LATENCY: 59.5703 cycles
cpu0_L1D TOTAL     ACCESS:   88144479  HIT:   87200396  MISS:     944083
cpu0_L1D LOAD      ACCESS:   53961212  HIT:   53768192  MISS:     193020
cpu0_L1D RFO       ACCESS:   34123390  HIT:   33372349  MISS:     751041
cpu0_L1D PREFETCH  ACCESS:          0  HIT:          0  MISS:          0
cpu0_L1D WRITEBACK ACCESS:          0  HIT:          0  MISS:          0
cpu0_L1D TRANSLATION ACCESS:      59877  HIT:      59855  MISS:         22
cpu0_L1D PREFETCH  REQUESTED:          0  ISSUED:          0  USEFUL:          0  USELESS:          0
cpu0_L1D AVERAGE MISS LATENCY: 62.0698 cycles
cpu0_L2C TOTAL     ACCESS:    1811582  HIT:    1488983  MISS:     322599
cpu0_L2C LOAD      ACCESS:     193144  HIT:     150627  MISS:      42517
cpu0_L2C RFO       ACCESS:     751041  HIT:     470959  MISS:     280082
cpu0_L2C PREFETCH  ACCESS:          0  HIT:          0  MISS:          0
cpu0_L2C WRITEBACK ACCESS:     867375  HIT:     867375  MISS:          0
cpu0_L2C TRANSLATION ACCESS:         22  HIT:         22  MISS:          0
cpu0_L2C PREFETCH  REQUESTED:          0  ISSUED:          0  USEFUL:          0  USELESS:          0
cpu0_L2C AVERAGE MISS LATENCY: 149.474 cycles
LLC TOTAL     ACCESS:     364713  HIT:      13387  MISS:     351326
LLC LOAD      ACCESS:      42517  HIT:       7460  MISS:      35057
LLC RFO       ACCESS:     280082  HIT:        442  MISS:     279640
LLC PREFETCH  ACCESS:      41963  HIT:       5485  MISS:      36478
LLC WRITEBACK ACCESS:        151  HIT:          0  MISS:        151
LLC TRANSLATION ACCESS:          0  HIT:          0  MISS:          0
LLC PREFETCH  REQUESTED:      42517  ISSUED:      42517  USEFUL:       8357  USELESS:      29991
LLC AVERAGE MISS LATENCY: 139.769 cycles

DRAM Statistics
 CHANNEL 0
 RQ ROW_BUFFER_HIT:     149570  ROW_BUFFER_MISS:     201605
 DBUS AVG_CONGESTED_CYCLE:    3.65418
 WQ ROW_BUFFER_HIT:          6  ROW_BUFFER_MISS:         69  FULL:          0


CPU 0 Branch Prediction Accuracy: 96.8635% MPKI: 7.84485 Average ROB Occupancy at Mispredict: 35.4535
Branch type MPKI
BRANCH_DIRECT_JUMP: 7.6e-05
BRANCH_INDIRECT: 0.241662
BRANCH_CONDITIONAL: 6.27076
BRANCH_DIRECT_CALL: 0.000294
BRANCH_INDIRECT_CALL: 0.282466
BRANCH_RETURN: 1.04959

