/home/caslab/workspace/sim/ChampSim/bin/champsim --warmup_instructions 200000000 --simulation_instructions 500000000/ /home/caslab/workspace/sim/traces/speccpu_by_champsim602.gcc_s-1850B.champsimtrace.xz
start simulation for 602.gcc_s-1850B.champsimtrace.xz

*** ChampSim Multicore Out-of-Order Simulator ***

Warmup Instructions: 200000000
Simulation Instructions: 500000000
Number of CPUs: 1
Off-chip DRAM Size: 4 GiB Channels: 1 Width: 64-bit Data Rate: 3200 MT/s

VirtualMemory physical capacity: 8588881920 num_ppages: 2096895
VirtualMemory page size: 4096 log2_page_size: 12

CPU 0 runs /home/caslab/workspace/sim/traces/speccpu_by_champsim/602.gcc_s-1850B.champsimtrace.xz
CPU 0 Bimodal branch predictor
Basic BTB sets: 1024 ways: 8 indirect buffer size: 4096 RAS size: 64
LLC next line prefetcher
WARNING: The extended signature CACHE::prefetch_line(ip, base_addr, pf_addr, fill_this_level, prefetch_metadata) is deprecated.
WARNING: Use CACHE::prefetch_line(pf_addr, fill_this_level, prefetch_metadata) instead.
Heartbeat CPU 0 instructions: 10000002 cycles: 2500075 heartbeat IPC: 3.99988 cumulative IPC: 3.99988 (Simulation time: 0 hr 0 min 20 sec) 
Heartbeat CPU 0 instructions: 20000002 cycles: 5000075 heartbeat IPC: 4 cumulative IPC: 3.99994 (Simulation time: 0 hr 0 min 39 sec) 
Heartbeat CPU 0 instructions: 30000001 cycles: 7500106 heartbeat IPC: 3.99995 cumulative IPC: 3.99994 (Simulation time: 0 hr 0 min 59 sec) 
Heartbeat CPU 0 instructions: 40000002 cycles: 10000075 heartbeat IPC: 4.00005 cumulative IPC: 3.99997 (Simulation time: 0 hr 1 min 18 sec) 
Heartbeat CPU 0 instructions: 50000002 cycles: 12500075 heartbeat IPC: 4 cumulative IPC: 3.99998 (Simulation time: 0 hr 1 min 38 sec) 
Heartbeat CPU 0 instructions: 60000002 cycles: 15000075 heartbeat IPC: 4 cumulative IPC: 3.99998 (Simulation time: 0 hr 1 min 57 sec) 
Heartbeat CPU 0 instructions: 70000002 cycles: 17500075 heartbeat IPC: 4 cumulative IPC: 3.99998 (Simulation time: 0 hr 2 min 16 sec) 
Heartbeat CPU 0 instructions: 80000002 cycles: 20000075 heartbeat IPC: 4 cumulative IPC: 3.99999 (Simulation time: 0 hr 2 min 36 sec) 
Heartbeat CPU 0 instructions: 90000002 cycles: 22500075 heartbeat IPC: 4 cumulative IPC: 3.99999 (Simulation time: 0 hr 2 min 55 sec) 
Heartbeat CPU 0 instructions: 100000002 cycles: 25000075 heartbeat IPC: 4 cumulative IPC: 3.99999 (Simulation time: 0 hr 3 min 14 sec) 
Heartbeat CPU 0 instructions: 110000002 cycles: 27500075 heartbeat IPC: 4 cumulative IPC: 3.99999 (Simulation time: 0 hr 3 min 34 sec) 
Heartbeat CPU 0 instructions: 120000002 cycles: 30000075 heartbeat IPC: 4 cumulative IPC: 3.99999 (Simulation time: 0 hr 3 min 53 sec) 
Heartbeat CPU 0 instructions: 130000002 cycles: 32500075 heartbeat IPC: 4 cumulative IPC: 3.99999 (Simulation time: 0 hr 4 min 12 sec) 
Heartbeat CPU 0 instructions: 140000002 cycles: 35000075 heartbeat IPC: 4 cumulative IPC: 3.99999 (Simulation time: 0 hr 4 min 32 sec) 
Heartbeat CPU 0 instructions: 150000002 cycles: 37500075 heartbeat IPC: 4 cumulative IPC: 3.99999 (Simulation time: 0 hr 4 min 52 sec) 
Heartbeat CPU 0 instructions: 160000002 cycles: 40000075 heartbeat IPC: 4 cumulative IPC: 3.99999 (Simulation time: 0 hr 5 min 11 sec) 
Heartbeat CPU 0 instructions: 170000002 cycles: 42500075 heartbeat IPC: 4 cumulative IPC: 3.99999 (Simulation time: 0 hr 5 min 31 sec) 
Heartbeat CPU 0 instructions: 180000002 cycles: 45000075 heartbeat IPC: 4 cumulative IPC: 3.99999 (Simulation time: 0 hr 5 min 51 sec) 
Heartbeat CPU 0 instructions: 190000002 cycles: 47500075 heartbeat IPC: 4 cumulative IPC: 3.99999 (Simulation time: 0 hr 6 min 10 sec) 
Heartbeat CPU 0 instructions: 200000002 cycles: 50000075 heartbeat IPC: 4 cumulative IPC: 3.99999 (Simulation time: 0 hr 6 min 30 sec) 

Warmup complete CPU 0 instructions: 200000002 cycles: 50000075 (Simulation time: 0 hr 6 min 30 sec) 

Heartbeat CPU 0 instructions: 210000000 cycles: 69783766 heartbeat IPC: 0.505467 cumulative IPC: 0.505467 (Simulation time: 0 hr 6 min 58 sec) 
Heartbeat CPU 0 instructions: 220000000 cycles: 89641044 heartbeat IPC: 0.503594 cumulative IPC: 0.504528 (Simulation time: 0 hr 7 min 26 sec) 
Heartbeat CPU 0 instructions: 230000004 cycles: 109491552 heartbeat IPC: 0.503766 cumulative IPC: 0.504274 (Simulation time: 0 hr 7 min 54 sec) 
Heartbeat CPU 0 instructions: 240000001 cycles: 129268670 heartbeat IPC: 0.505635 cumulative IPC: 0.504613 (Simulation time: 0 hr 8 min 22 sec) 
Heartbeat CPU 0 instructions: 250000002 cycles: 149086978 heartbeat IPC: 0.504584 cumulative IPC: 0.504608 (Simulation time: 0 hr 8 min 50 sec) 
Heartbeat CPU 0 instructions: 260000001 cycles: 168922438 heartbeat IPC: 0.504148 cumulative IPC: 0.504531 (Simulation time: 0 hr 9 min 18 sec) 
Heartbeat CPU 0 instructions: 270000004 cycles: 188777358 heartbeat IPC: 0.503654 cumulative IPC: 0.504405 (Simulation time: 0 hr 9 min 46 sec) 
Heartbeat CPU 0 instructions: 280000002 cycles: 208565079 heartbeat IPC: 0.505364 cumulative IPC: 0.504525 (Simulation time: 0 hr 10 min 14 sec) 
Heartbeat CPU 0 instructions: 290000002 cycles: 228323163 heartbeat IPC: 0.506122 cumulative IPC: 0.504702 (Simulation time: 0 hr 10 min 42 sec) 
Heartbeat CPU 0 instructions: 300000001 cycles: 248089386 heartbeat IPC: 0.505913 cumulative IPC: 0.504823 (Simulation time: 0 hr 11 min 11 sec) 
Heartbeat CPU 0 instructions: 310000003 cycles: 267897217 heartbeat IPC: 0.504851 cumulative IPC: 0.504825 (Simulation time: 0 hr 11 min 39 sec) 
Heartbeat CPU 0 instructions: 320000000 cycles: 287706691 heartbeat IPC: 0.504809 cumulative IPC: 0.504824 (Simulation time: 0 hr 12 min 7 sec) 
Heartbeat CPU 0 instructions: 330000000 cycles: 307485845 heartbeat IPC: 0.505583 cumulative IPC: 0.504882 (Simulation time: 0 hr 12 min 35 sec) 
Heartbeat CPU 0 instructions: 340000000 cycles: 327298971 heartbeat IPC: 0.504716 cumulative IPC: 0.50487 (Simulation time: 0 hr 13 min 2 sec) 
Heartbeat CPU 0 instructions: 350000000 cycles: 347048455 heartbeat IPC: 0.506342 cumulative IPC: 0.504968 (Simulation time: 0 hr 13 min 30 sec) 
Heartbeat CPU 0 instructions: 360000000 cycles: 366806819 heartbeat IPC: 0.506115 cumulative IPC: 0.50504 (Simulation time: 0 hr 13 min 58 sec) 
Heartbeat CPU 0 instructions: 370000004 cycles: 386579172 heartbeat IPC: 0.505757 cumulative IPC: 0.505082 (Simulation time: 0 hr 14 min 26 sec) 
Heartbeat CPU 0 instructions: 380000000 cycles: 406389380 heartbeat IPC: 0.50479 cumulative IPC: 0.505066 (Simulation time: 0 hr 14 min 54 sec) 
Heartbeat CPU 0 instructions: 390000000 cycles: 426234010 heartbeat IPC: 0.503915 cumulative IPC: 0.505005 (Simulation time: 0 hr 15 min 22 sec) 
Heartbeat CPU 0 instructions: 400000001 cycles: 446070500 heartbeat IPC: 0.504121 cumulative IPC: 0.504961 (Simulation time: 0 hr 15 min 50 sec) 
Heartbeat CPU 0 instructions: 410000000 cycles: 465861715 heartbeat IPC: 0.505275 cumulative IPC: 0.504976 (Simulation time: 0 hr 16 min 18 sec) 
Heartbeat CPU 0 instructions: 420000001 cycles: 485647764 heartbeat IPC: 0.505407 cumulative IPC: 0.504995 (Simulation time: 0 hr 16 min 46 sec) 
Heartbeat CPU 0 instructions: 430000000 cycles: 505439158 heartbeat IPC: 0.50527 cumulative IPC: 0.505007 (Simulation time: 0 hr 17 min 14 sec) 
Heartbeat CPU 0 instructions: 440000000 cycles: 525253444 heartbeat IPC: 0.504686 cumulative IPC: 0.504994 (Simulation time: 0 hr 17 min 42 sec) 
Heartbeat CPU 0 instructions: 450000000 cycles: 545051866 heartbeat IPC: 0.505091 cumulative IPC: 0.504998 (Simulation time: 0 hr 18 min 9 sec) 
Heartbeat CPU 0 instructions: 460000004 cycles: 564775526 heartbeat IPC: 0.507006 cumulative IPC: 0.505075 (Simulation time: 0 hr 18 min 37 sec) 
Heartbeat CPU 0 instructions: 470000003 cycles: 584478711 heartbeat IPC: 0.507532 cumulative IPC: 0.505165 (Simulation time: 0 hr 19 min 5 sec) 
Heartbeat CPU 0 instructions: 480000000 cycles: 604206165 heartbeat IPC: 0.506908 cumulative IPC: 0.505227 (Simulation time: 0 hr 19 min 33 sec) 
Heartbeat CPU 0 instructions: 490000001 cycles: 623914501 heartbeat IPC: 0.5074 cumulative IPC: 0.505302 (Simulation time: 0 hr 20 min 1 sec) 
Heartbeat CPU 0 instructions: 500000000 cycles: 643696844 heartbeat IPC: 0.505501 cumulative IPC: 0.505308 (Simulation time: 0 hr 20 min 29 sec) 
Heartbeat CPU 0 instructions: 510000001 cycles: 663466556 heartbeat IPC: 0.505824 cumulative IPC: 0.505325 (Simulation time: 0 hr 20 min 56 sec) 
Heartbeat CPU 0 instructions: 520000003 cycles: 683152514 heartbeat IPC: 0.507976 cumulative IPC: 0.505408 (Simulation time: 0 hr 21 min 24 sec) 
Heartbeat CPU 0 instructions: 530000002 cycles: 702864237 heartbeat IPC: 0.507312 cumulative IPC: 0.505465 (Simulation time: 0 hr 21 min 52 sec) 
Heartbeat CPU 0 instructions: 540000003 cycles: 722730554 heartbeat IPC: 0.503365 cumulative IPC: 0.505403 (Simulation time: 0 hr 22 min 20 sec) 
Heartbeat CPU 0 instructions: 550000000 cycles: 742513338 heartbeat IPC: 0.50549 cumulative IPC: 0.505405 (Simulation time: 0 hr 22 min 48 sec) 
Heartbeat CPU 0 instructions: 560000002 cycles: 762296101 heartbeat IPC: 0.505491 cumulative IPC: 0.505408 (Simulation time: 0 hr 23 min 16 sec) 
Heartbeat CPU 0 instructions: 570000003 cycles: 782057545 heartbeat IPC: 0.506036 cumulative IPC: 0.505425 (Simulation time: 0 hr 23 min 43 sec) 
Heartbeat CPU 0 instructions: 580000003 cycles: 801798379 heartbeat IPC: 0.506564 cumulative IPC: 0.505455 (Simulation time: 0 hr 24 min 11 sec) 
Heartbeat CPU 0 instructions: 590000003 cycles: 821582604 heartbeat IPC: 0.505453 cumulative IPC: 0.505455 (Simulation time: 0 hr 24 min 40 sec) 
Heartbeat CPU 0 instructions: 600000004 cycles: 841359585 heartbeat IPC: 0.505638 cumulative IPC: 0.505459 (Simulation time: 0 hr 25 min 8 sec) 
Heartbeat CPU 0 instructions: 610000002 cycles: 861142174 heartbeat IPC: 0.505495 cumulative IPC: 0.50546 (Simulation time: 0 hr 25 min 36 sec) 
Heartbeat CPU 0 instructions: 620000000 cycles: 883040639 heartbeat IPC: 0.456653 cumulative IPC: 0.504177 (Simulation time: 0 hr 26 min 5 sec) 
Heartbeat CPU 0 instructions: 630000000 cycles: 903682728 heartbeat IPC: 0.484447 cumulative IPC: 0.5037 (Simulation time: 0 hr 26 min 35 sec) 
Heartbeat CPU 0 instructions: 640000000 cycles: 923939179 heartbeat IPC: 0.49367 cumulative IPC: 0.503468 (Simulation time: 0 hr 27 min 3 sec) 
Heartbeat CPU 0 instructions: 650000001 cycles: 944545026 heartbeat IPC: 0.485299 cumulative IPC: 0.503049 (Simulation time: 0 hr 27 min 32 sec) 
Heartbeat CPU 0 instructions: 660000003 cycles: 964545071 heartbeat IPC: 0.499999 cumulative IPC: 0.502982 (Simulation time: 0 hr 28 min 0 sec) 
Heartbeat CPU 0 instructions: 670000001 cycles: 984340759 heartbeat IPC: 0.50516 cumulative IPC: 0.503029 (Simulation time: 0 hr 28 min 28 sec) 
Heartbeat CPU 0 instructions: 680000000 cycles: 1004132947 heartbeat IPC: 0.50525 cumulative IPC: 0.503075 (Simulation time: 0 hr 28 min 56 sec) 
Heartbeat CPU 0 instructions: 690000002 cycles: 1023825123 heartbeat IPC: 0.507816 cumulative IPC: 0.50317 (Simulation time: 0 hr 29 min 23 sec) 
Heartbeat CPU 0 instructions: 700000002 cycles: 1043503599 heartbeat IPC: 0.508169 cumulative IPC: 0.503269 (Simulation time: 0 hr 29 min 51 sec) 
Finished CPU 0 instructions: 500000000 cycles: 993503524 cumulative IPC: 0.503269 (Simulation time: 0 hr 29 min 51 sec) 

ChampSim completed all CPUs

Region of Interest Statistics

CPU 0 cumulative IPC: 0.503269 instructions: 500000000 cycles: 993503524
cpu0_DTLB TOTAL     ACCESS:   94035977  HIT:   93800144  MISS:     235833
cpu0_DTLB LOAD      ACCESS:   77845589  HIT:   77609820  MISS:     235769
cpu0_DTLB RFO       ACCESS:   16190388  HIT:   16190324  MISS:         64
cpu0_DTLB PREFETCH  ACCESS:          0  HIT:          0  MISS:          0
cpu0_DTLB WRITEBACK ACCESS:          0  HIT:          0  MISS:          0
cpu0_DTLB TRANSLATION ACCESS:          0  HIT:          0  MISS:          0
cpu0_DTLB PREFETCH  REQUESTED:          0  ISSUED:          0  USEFUL:          0  USELESS:          0
cpu0_DTLB AVERAGE MISS LATENCY: 143.888 cycles
cpu0_ITLB TOTAL     ACCESS:   57143481  HIT:   57143481  MISS:          0
cpu0_ITLB LOAD      ACCESS:   57143481  HIT:   57143481  MISS:          0
cpu0_ITLB RFO       ACCESS:          0  HIT:          0  MISS:          0
cpu0_ITLB PREFETCH  ACCESS:          0  HIT:          0  MISS:          0
cpu0_ITLB WRITEBACK ACCESS:          0  HIT:          0  MISS:          0
cpu0_ITLB TRANSLATION ACCESS:          0  HIT:          0  MISS:          0
cpu0_ITLB PREFETCH  REQUESTED:          0  ISSUED:          0  USEFUL:          0  USELESS:          0
cpu0_ITLB AVERAGE MISS LATENCY: -nan cycles
cpu0_STLB TOTAL     ACCESS:     235833  HIT:      82744  MISS:     153089
cpu0_STLB LOAD      ACCESS:     235769  HIT:      82744  MISS:     153025
cpu0_STLB RFO       ACCESS:         64  HIT:          0  MISS:         64
cpu0_STLB PREFETCH  ACCESS:          0  HIT:          0  MISS:          0
cpu0_STLB WRITEBACK ACCESS:          0  HIT:          0  MISS:          0
cpu0_STLB TRANSLATION ACCESS:          0  HIT:          0  MISS:          0
cpu0_STLB PREFETCH  REQUESTED:          0  ISSUED:          0  USEFUL:          0  USELESS:          0
cpu0_STLB AVERAGE MISS LATENCY: 207.793 cycles
cpu0_L1D TOTAL     ACCESS:  109997648  HIT:  101097201  MISS:    8900447
cpu0_L1D LOAD      ACCESS:   66686353  HIT:   57790778  MISS:    8895575
cpu0_L1D RFO       ACCESS:   43158216  HIT:   43153987  MISS:       4229
cpu0_L1D PREFETCH  ACCESS:          0  HIT:          0  MISS:          0
cpu0_L1D WRITEBACK ACCESS:          0  HIT:          0  MISS:          0
cpu0_L1D TRANSLATION ACCESS:     153079  HIT:     152436  MISS:        643
cpu0_L1D PREFETCH  REQUESTED:          0  ISSUED:          0  USEFUL:          0  USELESS:          0
cpu0_L1D AVERAGE MISS LATENCY: 51.3022 cycles
cpu0_L2C TOTAL     ACCESS:    8912982  HIT:      20516  MISS:    8892466
cpu0_L2C LOAD      ACCESS:    8895575  HIT:       7569  MISS:    8888006
cpu0_L2C RFO       ACCESS:       4229  HIT:          0  MISS:       4229
cpu0_L2C PREFETCH  ACCESS:          0  HIT:          0  MISS:          0
cpu0_L2C WRITEBACK ACCESS:      12535  HIT:      12535  MISS:          0
cpu0_L2C TRANSLATION ACCESS:        643  HIT:        412  MISS:        231
cpu0_L2C PREFETCH  REQUESTED:          0  ISSUED:          0  USEFUL:          0  USELESS:          0
cpu0_L2C AVERAGE MISS LATENCY: 40.3361 cycles
LLC TOTAL     ACCESS:   13904625  HIT:    4812589  MISS:    9092036
LLC LOAD      ACCESS:    8888006  HIT:    4790871  MISS:    4097135
LLC RFO       ACCESS:       4229  HIT:       2342  MISS:       1887
LLC PREFETCH  ACCESS:    4999562  HIT:      19376  MISS:    4980186
LLC WRITEBACK ACCESS:      12597  HIT:          0  MISS:      12597
LLC TRANSLATION ACCESS:        231  HIT:          0  MISS:        231
LLC PREFETCH  REQUESTED:    8888006  ISSUED:    8888006  USEFUL:    8638206  USELESS:     186990
LLC AVERAGE MISS LATENCY: 46.5975 cycles

DRAM Statistics
 CHANNEL 0
 RQ ROW_BUFFER_HIT:    7310210  ROW_BUFFER_MISS:    1769229
 DBUS AVG_CONGESTED_CYCLE:    3.57072
 WQ ROW_BUFFER_HIT:      10856  ROW_BUFFER_MISS:       1757  FULL:          0


CPU 0 Branch Prediction Accuracy: 92.3647% MPKI: 19.5772 Average ROB Occupancy at Mispredict: 33.4701
Branch type MPKI
BRANCH_DIRECT_JUMP: 0
BRANCH_INDIRECT: 0
BRANCH_CONDITIONAL: 19.5772
BRANCH_DIRECT_CALL: 0
BRANCH_INDIRECT_CALL: 0
BRANCH_RETURN: 0

