/home/caslab/workspace/sim/ChampSim/bin/champsim --warmup_instructions 200000000 --simulation_instructions 500000000/ /home/caslab/workspace/sim/traces/speccpu_by_champsim602.gcc_s-734B.champsimtrace.xz
start simulation for 602.gcc_s-734B.champsimtrace.xz

*** ChampSim Multicore Out-of-Order Simulator ***

Warmup Instructions: 200000000
Simulation Instructions: 500000000
Number of CPUs: 1
Off-chip DRAM Size: 4 GiB Channels: 1 Width: 64-bit Data Rate: 3200 MT/s

VirtualMemory physical capacity: 8588881920 num_ppages: 2096895
VirtualMemory page size: 4096 log2_page_size: 12

CPU 0 runs /home/caslab/workspace/sim/traces/speccpu_by_champsim/602.gcc_s-734B.champsimtrace.xz
CPU 0 Bimodal branch predictor
Basic BTB sets: 1024 ways: 8 indirect buffer size: 4096 RAS size: 64
LLC next line prefetcher
WARNING: The extended signature CACHE::prefetch_line(ip, base_addr, pf_addr, fill_this_level, prefetch_metadata) is deprecated.
WARNING: Use CACHE::prefetch_line(pf_addr, fill_this_level, prefetch_metadata) instead.
Heartbeat CPU 0 instructions: 10000002 cycles: 2500071 heartbeat IPC: 3.99989 cumulative IPC: 3.99989 (Simulation time: 0 hr 0 min 19 sec) 
Heartbeat CPU 0 instructions: 20000000 cycles: 5000454 heartbeat IPC: 3.99939 cumulative IPC: 3.99964 (Simulation time: 0 hr 0 min 37 sec) 
Heartbeat CPU 0 instructions: 30000000 cycles: 7500454 heartbeat IPC: 4 cumulative IPC: 3.99976 (Simulation time: 0 hr 0 min 56 sec) 
Heartbeat CPU 0 instructions: 40000003 cycles: 10000459 heartbeat IPC: 3.99999 cumulative IPC: 3.99982 (Simulation time: 0 hr 1 min 14 sec) 
Heartbeat CPU 0 instructions: 50000003 cycles: 12500459 heartbeat IPC: 4 cumulative IPC: 3.99985 (Simulation time: 0 hr 1 min 33 sec) 
Heartbeat CPU 0 instructions: 60000003 cycles: 15000459 heartbeat IPC: 4 cumulative IPC: 3.99988 (Simulation time: 0 hr 1 min 52 sec) 
Heartbeat CPU 0 instructions: 70000001 cycles: 17506787 heartbeat IPC: 3.9899 cumulative IPC: 3.99845 (Simulation time: 0 hr 2 min 10 sec) 
Heartbeat CPU 0 instructions: 80000001 cycles: 20006787 heartbeat IPC: 4 cumulative IPC: 3.99864 (Simulation time: 0 hr 2 min 28 sec) 
Heartbeat CPU 0 instructions: 90000001 cycles: 22506787 heartbeat IPC: 4 cumulative IPC: 3.99879 (Simulation time: 0 hr 2 min 47 sec) 
Heartbeat CPU 0 instructions: 100000002 cycles: 25246846 heartbeat IPC: 3.64956 cumulative IPC: 3.96089 (Simulation time: 0 hr 3 min 8 sec) 
Heartbeat CPU 0 instructions: 110000002 cycles: 27746846 heartbeat IPC: 4 cumulative IPC: 3.96441 (Simulation time: 0 hr 3 min 26 sec) 
Heartbeat CPU 0 instructions: 120000002 cycles: 30246846 heartbeat IPC: 4 cumulative IPC: 3.96736 (Simulation time: 0 hr 3 min 44 sec) 
Heartbeat CPU 0 instructions: 130000003 cycles: 32803475 heartbeat IPC: 3.9114 cumulative IPC: 3.96299 (Simulation time: 0 hr 4 min 3 sec) 
Heartbeat CPU 0 instructions: 140000003 cycles: 35303475 heartbeat IPC: 4 cumulative IPC: 3.96562 (Simulation time: 0 hr 4 min 22 sec) 
Heartbeat CPU 0 instructions: 150000003 cycles: 37803495 heartbeat IPC: 3.99997 cumulative IPC: 3.96789 (Simulation time: 0 hr 4 min 40 sec) 
Heartbeat CPU 0 instructions: 160000002 cycles: 40306507 heartbeat IPC: 3.99519 cumulative IPC: 3.96958 (Simulation time: 0 hr 4 min 58 sec) 
Heartbeat CPU 0 instructions: 170000002 cycles: 42806507 heartbeat IPC: 4 cumulative IPC: 3.97136 (Simulation time: 0 hr 5 min 16 sec) 
Heartbeat CPU 0 instructions: 180000002 cycles: 45306507 heartbeat IPC: 4 cumulative IPC: 3.97294 (Simulation time: 0 hr 5 min 35 sec) 
Heartbeat CPU 0 instructions: 190000002 cycles: 47806507 heartbeat IPC: 4 cumulative IPC: 3.97435 (Simulation time: 0 hr 5 min 54 sec) 
Heartbeat CPU 0 instructions: 200000003 cycles: 50307007 heartbeat IPC: 3.9992 cumulative IPC: 3.97559 (Simulation time: 0 hr 6 min 12 sec) 

Warmup complete CPU 0 instructions: 200000003 cycles: 50307007 (Simulation time: 0 hr 6 min 12 sec) 

Heartbeat CPU 0 instructions: 210000000 cycles: 59200739 heartbeat IPC: 1.12439 cumulative IPC: 1.12439 (Simulation time: 0 hr 6 min 32 sec) 
Heartbeat CPU 0 instructions: 220000001 cycles: 68168508 heartbeat IPC: 1.1151 cumulative IPC: 1.11973 (Simulation time: 0 hr 6 min 52 sec) 
Heartbeat CPU 0 instructions: 230000002 cycles: 77059861 heartbeat IPC: 1.12469 cumulative IPC: 1.12138 (Simulation time: 0 hr 7 min 11 sec) 
Heartbeat CPU 0 instructions: 240000001 cycles: 85967547 heartbeat IPC: 1.12263 cumulative IPC: 1.12169 (Simulation time: 0 hr 7 min 31 sec) 
Heartbeat CPU 0 instructions: 250000000 cycles: 95233342 heartbeat IPC: 1.07924 cumulative IPC: 1.11293 (Simulation time: 0 hr 7 min 51 sec) 
Heartbeat CPU 0 instructions: 260000000 cycles: 104130351 heartbeat IPC: 1.12397 cumulative IPC: 1.11476 (Simulation time: 0 hr 8 min 11 sec) 
Heartbeat CPU 0 instructions: 270000000 cycles: 113351365 heartbeat IPC: 1.08448 cumulative IPC: 1.11033 (Simulation time: 0 hr 8 min 32 sec) 
Heartbeat CPU 0 instructions: 280000001 cycles: 122236783 heartbeat IPC: 1.12544 cumulative IPC: 1.1122 (Simulation time: 0 hr 8 min 51 sec) 
Heartbeat CPU 0 instructions: 290000000 cycles: 131131962 heartbeat IPC: 1.1242 cumulative IPC: 1.11352 (Simulation time: 0 hr 9 min 11 sec) 
Heartbeat CPU 0 instructions: 300000002 cycles: 140050745 heartbeat IPC: 1.12123 cumulative IPC: 1.11428 (Simulation time: 0 hr 9 min 31 sec) 
Heartbeat CPU 0 instructions: 310000003 cycles: 148941223 heartbeat IPC: 1.1248 cumulative IPC: 1.11523 (Simulation time: 0 hr 9 min 50 sec) 
Heartbeat CPU 0 instructions: 320000000 cycles: 157888566 heartbeat IPC: 1.11765 cumulative IPC: 1.11543 (Simulation time: 0 hr 10 min 10 sec) 
Heartbeat CPU 0 instructions: 330000003 cycles: 167663000 heartbeat IPC: 1.02308 cumulative IPC: 1.10774 (Simulation time: 0 hr 10 min 30 sec) 
Heartbeat CPU 0 instructions: 340000004 cycles: 176559120 heartbeat IPC: 1.12409 cumulative IPC: 1.10889 (Simulation time: 0 hr 10 min 50 sec) 
Heartbeat CPU 0 instructions: 350000002 cycles: 185495475 heartbeat IPC: 1.11902 cumulative IPC: 1.10956 (Simulation time: 0 hr 11 min 10 sec) 
Heartbeat CPU 0 instructions: 360000001 cycles: 194496183 heartbeat IPC: 1.11102 cumulative IPC: 1.10965 (Simulation time: 0 hr 11 min 30 sec) 
Heartbeat CPU 0 instructions: 370000001 cycles: 203393052 heartbeat IPC: 1.12399 cumulative IPC: 1.11049 (Simulation time: 0 hr 11 min 49 sec) 
Heartbeat CPU 0 instructions: 380000000 cycles: 212353289 heartbeat IPC: 1.11604 cumulative IPC: 1.11079 (Simulation time: 0 hr 12 min 9 sec) 
Heartbeat CPU 0 instructions: 390000000 cycles: 222333401 heartbeat IPC: 1.00199 cumulative IPC: 1.10448 (Simulation time: 0 hr 12 min 31 sec) 
Heartbeat CPU 0 instructions: 400000003 cycles: 231213254 heartbeat IPC: 1.12615 cumulative IPC: 1.10555 (Simulation time: 0 hr 12 min 50 sec) 
Heartbeat CPU 0 instructions: 410000001 cycles: 240112067 heartbeat IPC: 1.12375 cumulative IPC: 1.1064 (Simulation time: 0 hr 13 min 10 sec) 
Heartbeat CPU 0 instructions: 420000001 cycles: 249261936 heartbeat IPC: 1.09291 cumulative IPC: 1.10578 (Simulation time: 0 hr 13 min 30 sec) 
Heartbeat CPU 0 instructions: 430000002 cycles: 258152700 heartbeat IPC: 1.12476 cumulative IPC: 1.10659 (Simulation time: 0 hr 13 min 50 sec) 
Heartbeat CPU 0 instructions: 440000001 cycles: 267082781 heartbeat IPC: 1.11981 cumulative IPC: 1.10713 (Simulation time: 0 hr 14 min 9 sec) 
Heartbeat CPU 0 instructions: 450000000 cycles: 276039575 heartbeat IPC: 1.11647 cumulative IPC: 1.10751 (Simulation time: 0 hr 14 min 29 sec) 
Heartbeat CPU 0 instructions: 460000000 cycles: 284928430 heartbeat IPC: 1.125 cumulative IPC: 1.10817 (Simulation time: 0 hr 14 min 48 sec) 
Heartbeat CPU 0 instructions: 470000001 cycles: 293875024 heartbeat IPC: 1.11774 cumulative IPC: 1.10852 (Simulation time: 0 hr 15 min 8 sec) 
Heartbeat CPU 0 instructions: 480000001 cycles: 303399776 heartbeat IPC: 1.0499 cumulative IPC: 1.10631 (Simulation time: 0 hr 15 min 29 sec) 
Heartbeat CPU 0 instructions: 490000000 cycles: 312297489 heartbeat IPC: 1.12388 cumulative IPC: 1.10691 (Simulation time: 0 hr 15 min 49 sec) 
Heartbeat CPU 0 instructions: 500000002 cycles: 321264930 heartbeat IPC: 1.11515 cumulative IPC: 1.10718 (Simulation time: 0 hr 16 min 8 sec) 
Heartbeat CPU 0 instructions: 510000001 cycles: 330154961 heartbeat IPC: 1.12486 cumulative IPC: 1.10774 (Simulation time: 0 hr 16 min 28 sec) 
Heartbeat CPU 0 instructions: 520000002 cycles: 339111170 heartbeat IPC: 1.11654 cumulative IPC: 1.10802 (Simulation time: 0 hr 16 min 48 sec) 
Heartbeat CPU 0 instructions: 530000001 cycles: 348026300 heartbeat IPC: 1.12169 cumulative IPC: 1.10843 (Simulation time: 0 hr 17 min 8 sec) 
Heartbeat CPU 0 instructions: 540000004 cycles: 356909820 heartbeat IPC: 1.12568 cumulative IPC: 1.10893 (Simulation time: 0 hr 17 min 27 sec) 
Heartbeat CPU 0 instructions: 550000000 cycles: 365808898 heartbeat IPC: 1.12371 cumulative IPC: 1.10934 (Simulation time: 0 hr 17 min 47 sec) 
Heartbeat CPU 0 instructions: 560000000 cycles: 375021336 heartbeat IPC: 1.08549 cumulative IPC: 1.10867 (Simulation time: 0 hr 18 min 7 sec) 
Heartbeat CPU 0 instructions: 570000004 cycles: 384073099 heartbeat IPC: 1.10476 cumulative IPC: 1.10856 (Simulation time: 0 hr 18 min 27 sec) 
Heartbeat CPU 0 instructions: 580000000 cycles: 393316585 heartbeat IPC: 1.08184 cumulative IPC: 1.10784 (Simulation time: 0 hr 18 min 48 sec) 
Heartbeat CPU 0 instructions: 590000000 cycles: 402205367 heartbeat IPC: 1.12501 cumulative IPC: 1.10827 (Simulation time: 0 hr 19 min 8 sec) 
Heartbeat CPU 0 instructions: 600000001 cycles: 411109843 heartbeat IPC: 1.12303 cumulative IPC: 1.10864 (Simulation time: 0 hr 19 min 28 sec) 
Heartbeat CPU 0 instructions: 610000003 cycles: 420020939 heartbeat IPC: 1.1222 cumulative IPC: 1.10897 (Simulation time: 0 hr 19 min 48 sec) 
Heartbeat CPU 0 instructions: 620000000 cycles: 428902627 heartbeat IPC: 1.12591 cumulative IPC: 1.10936 (Simulation time: 0 hr 20 min 7 sec) 
Heartbeat CPU 0 instructions: 630000004 cycles: 437790671 heartbeat IPC: 1.12511 cumulative IPC: 1.10972 (Simulation time: 0 hr 20 min 27 sec) 
Heartbeat CPU 0 instructions: 640000003 cycles: 446697716 heartbeat IPC: 1.12271 cumulative IPC: 1.11002 (Simulation time: 0 hr 20 min 47 sec) 
Heartbeat CPU 0 instructions: 650000002 cycles: 455588888 heartbeat IPC: 1.12471 cumulative IPC: 1.11034 (Simulation time: 0 hr 21 min 6 sec) 
Heartbeat CPU 0 instructions: 660000003 cycles: 464504148 heartbeat IPC: 1.12167 cumulative IPC: 1.11058 (Simulation time: 0 hr 21 min 26 sec) 
Heartbeat CPU 0 instructions: 670000003 cycles: 473502746 heartbeat IPC: 1.11128 cumulative IPC: 1.1106 (Simulation time: 0 hr 21 min 46 sec) 
Heartbeat CPU 0 instructions: 680000000 cycles: 482393714 heartbeat IPC: 1.12474 cumulative IPC: 1.11089 (Simulation time: 0 hr 22 min 5 sec) 
Heartbeat CPU 0 instructions: 690000002 cycles: 491308574 heartbeat IPC: 1.12172 cumulative IPC: 1.11111 (Simulation time: 0 hr 22 min 25 sec) 
Heartbeat CPU 0 instructions: 700000001 cycles: 500244915 heartbeat IPC: 1.11903 cumulative IPC: 1.11126 (Simulation time: 0 hr 22 min 45 sec) 
Finished CPU 0 instructions: 500000002 cycles: 449937909 cumulative IPC: 1.11126 (Simulation time: 0 hr 22 min 45 sec) 

ChampSim completed all CPUs

Region of Interest Statistics

CPU 0 cumulative IPC: 1.11126 instructions: 500000002 cycles: 449937909
cpu0_L1I TOTAL     ACCESS:     154159  HIT:     154159  MISS:          0
cpu0_L1I LOAD      ACCESS:     154159  HIT:     154159  MISS:          0
cpu0_L1I RFO       ACCESS:          0  HIT:          0  MISS:          0
cpu0_L1I PREFETCH  ACCESS:          0  HIT:          0  MISS:          0
cpu0_L1I WRITEBACK ACCESS:          0  HIT:          0  MISS:          0
cpu0_L1I TRANSLATION ACCESS:          0  HIT:          0  MISS:          0
cpu0_L1I PREFETCH  REQUESTED:          0  ISSUED:          0  USEFUL:          0  USELESS:          0
cpu0_L1I AVERAGE MISS LATENCY: -nan cycles
cpu0_DTLB TOTAL     ACCESS:   93016271  HIT:   92879824  MISS:     136447
cpu0_DTLB LOAD      ACCESS:   74030896  HIT:   73895111  MISS:     135785
cpu0_DTLB RFO       ACCESS:   18985375  HIT:   18984713  MISS:        662
cpu0_DTLB PREFETCH  ACCESS:          0  HIT:          0  MISS:          0
cpu0_DTLB WRITEBACK ACCESS:          0  HIT:          0  MISS:          0
cpu0_DTLB TRANSLATION ACCESS:          0  HIT:          0  MISS:          0
cpu0_DTLB PREFETCH  REQUESTED:          0  ISSUED:          0  USEFUL:          0  USELESS:          0
cpu0_DTLB AVERAGE MISS LATENCY: 12.8607 cycles
cpu0_ITLB TOTAL     ACCESS:   56119575  HIT:   56119575  MISS:          0
cpu0_ITLB LOAD      ACCESS:   56119575  HIT:   56119575  MISS:          0
cpu0_ITLB RFO       ACCESS:          0  HIT:          0  MISS:          0
cpu0_ITLB PREFETCH  ACCESS:          0  HIT:          0  MISS:          0
cpu0_ITLB WRITEBACK ACCESS:          0  HIT:          0  MISS:          0
cpu0_ITLB TRANSLATION ACCESS:          0  HIT:          0  MISS:          0
cpu0_ITLB PREFETCH  REQUESTED:          0  ISSUED:          0  USEFUL:          0  USELESS:          0
cpu0_ITLB AVERAGE MISS LATENCY: -nan cycles
cpu0_STLB TOTAL     ACCESS:     136447  HIT:     129094  MISS:       7353
cpu0_STLB LOAD      ACCESS:     135785  HIT:     128540  MISS:       7245
cpu0_STLB RFO       ACCESS:        662  HIT:        554  MISS:        108
cpu0_STLB PREFETCH  ACCESS:          0  HIT:          0  MISS:          0
cpu0_STLB WRITEBACK ACCESS:          0  HIT:          0  MISS:          0
cpu0_STLB TRANSLATION ACCESS:          0  HIT:          0  MISS:          0
cpu0_STLB PREFETCH  REQUESTED:          0  ISSUED:          0  USEFUL:          0  USELESS:          0
cpu0_STLB AVERAGE MISS LATENCY: 71.611 cycles
cpu0_L1D TOTAL     ACCESS:  114530211  HIT:  110471228  MISS:    4058983
cpu0_L1D LOAD      ACCESS:   64380940  HIT:   60328298  MISS:    4052642
cpu0_L1D RFO       ACCESS:   50141922  HIT:   50136514  MISS:       5408
cpu0_L1D PREFETCH  ACCESS:          0  HIT:          0  MISS:          0
cpu0_L1D WRITEBACK ACCESS:          0  HIT:          0  MISS:          0
cpu0_L1D TRANSLATION ACCESS:       7349  HIT:       6416  MISS:        933
cpu0_L1D PREFETCH  REQUESTED:          0  ISSUED:          0  USEFUL:          0  USELESS:          0
cpu0_L1D AVERAGE MISS LATENCY: 12.3226 cycles
cpu0_L2C TOTAL     ACCESS:    4104490  HIT:    4004440  MISS:     100050
cpu0_L2C LOAD      ACCESS:    4052642  HIT:    3956020  MISS:      96622
cpu0_L2C RFO       ACCESS:       5408  HIT:       1988  MISS:       3420
cpu0_L2C PREFETCH  ACCESS:          0  HIT:          0  MISS:          0
cpu0_L2C WRITEBACK ACCESS:      45507  HIT:      45507  MISS:          0
cpu0_L2C TRANSLATION ACCESS:        933  HIT:        925  MISS:          8
cpu0_L2C PREFETCH  REQUESTED:          0  ISSUED:          0  USEFUL:          0  USELESS:          0
cpu0_L2C AVERAGE MISS LATENCY: 53.5441 cycles
LLC TOTAL     ACCESS:     163434  HIT:      60648  MISS:     102786
LLC LOAD      ACCESS:      96622  HIT:      60222  MISS:      36400
LLC RFO       ACCESS:       3420  HIT:          1  MISS:       3419
LLC PREFETCH  ACCESS:      63384  HIT:        425  MISS:      62959
LLC WRITEBACK ACCESS:          0  HIT:          0  MISS:          0
LLC TRANSLATION ACCESS:          8  HIT:          0  MISS:          8
LLC PREFETCH  REQUESTED:      96622  ISSUED:      96622  USEFUL:      92073  USELESS:       7198
LLC AVERAGE MISS LATENCY: 68.7139 cycles

DRAM Statistics
 CHANNEL 0
 RQ ROW_BUFFER_HIT:      49353  ROW_BUFFER_MISS:      53433
 DBUS AVG_CONGESTED_CYCLE:    3.57795
 WQ ROW_BUFFER_HIT:          0  ROW_BUFFER_MISS:          0  FULL:          0


CPU 0 Branch Prediction Accuracy: 94.6832% MPKI: 12.613 Average ROB Occupancy at Mispredict: 58.922
Branch type MPKI
BRANCH_DIRECT_JUMP: 0
BRANCH_INDIRECT: 0
BRANCH_CONDITIONAL: 12.613
BRANCH_DIRECT_CALL: 0
BRANCH_INDIRECT_CALL: 2e-06
BRANCH_RETURN: 0

