/home/caslab/workspace/sim/ChampSim/bin/champsim --warmup_instructions 200000000 --simulation_instructions 500000000/ /home/caslab/workspace/sim/traces/speccpu_by_champsim603.bwaves_s-2931B.champsimtrace.xz
start simulation for 603.bwaves_s-2931B.champsimtrace.xz

*** ChampSim Multicore Out-of-Order Simulator ***

Warmup Instructions: 200000000
Simulation Instructions: 500000000
Number of CPUs: 1
Off-chip DRAM Size: 4 GiB Channels: 1 Width: 64-bit Data Rate: 3200 MT/s

VirtualMemory physical capacity: 8588881920 num_ppages: 2096895
VirtualMemory page size: 4096 log2_page_size: 12

CPU 0 runs /home/caslab/workspace/sim/traces/speccpu_by_champsim/603.bwaves_s-2931B.champsimtrace.xz
CPU 0 Bimodal branch predictor
Basic BTB sets: 1024 ways: 8 indirect buffer size: 4096 RAS size: 64
LLC next line prefetcher
WARNING: The extended signature CACHE::prefetch_line(ip, base_addr, pf_addr, fill_this_level, prefetch_metadata) is deprecated.
WARNING: Use CACHE::prefetch_line(pf_addr, fill_this_level, prefetch_metadata) instead.
Heartbeat CPU 0 instructions: 10000002 cycles: 2500077 heartbeat IPC: 3.99988 cumulative IPC: 3.99988 (Simulation time: 0 hr 0 min 20 sec) 
Heartbeat CPU 0 instructions: 20000002 cycles: 5000077 heartbeat IPC: 4 cumulative IPC: 3.99994 (Simulation time: 0 hr 0 min 41 sec) 
Heartbeat CPU 0 instructions: 30000002 cycles: 7500077 heartbeat IPC: 4 cumulative IPC: 3.99996 (Simulation time: 0 hr 1 min 1 sec) 
Heartbeat CPU 0 instructions: 40000002 cycles: 10000077 heartbeat IPC: 4 cumulative IPC: 3.99997 (Simulation time: 0 hr 1 min 21 sec) 
Heartbeat CPU 0 instructions: 50000002 cycles: 12500077 heartbeat IPC: 4 cumulative IPC: 3.99998 (Simulation time: 0 hr 1 min 41 sec) 
Heartbeat CPU 0 instructions: 60000002 cycles: 15000077 heartbeat IPC: 4 cumulative IPC: 3.99998 (Simulation time: 0 hr 2 min 2 sec) 
Heartbeat CPU 0 instructions: 70000002 cycles: 17500077 heartbeat IPC: 4 cumulative IPC: 3.99998 (Simulation time: 0 hr 2 min 22 sec) 
Heartbeat CPU 0 instructions: 80000002 cycles: 20000077 heartbeat IPC: 4 cumulative IPC: 3.99998 (Simulation time: 0 hr 2 min 42 sec) 
Heartbeat CPU 0 instructions: 90000002 cycles: 22500077 heartbeat IPC: 4 cumulative IPC: 3.99999 (Simulation time: 0 hr 3 min 3 sec) 
Heartbeat CPU 0 instructions: 100000002 cycles: 25000077 heartbeat IPC: 4 cumulative IPC: 3.99999 (Simulation time: 0 hr 3 min 23 sec) 
Heartbeat CPU 0 instructions: 110000002 cycles: 27500077 heartbeat IPC: 4 cumulative IPC: 3.99999 (Simulation time: 0 hr 3 min 43 sec) 
Heartbeat CPU 0 instructions: 120000002 cycles: 30000077 heartbeat IPC: 4 cumulative IPC: 3.99999 (Simulation time: 0 hr 4 min 3 sec) 
Heartbeat CPU 0 instructions: 130000002 cycles: 32500077 heartbeat IPC: 4 cumulative IPC: 3.99999 (Simulation time: 0 hr 4 min 24 sec) 
Heartbeat CPU 0 instructions: 140000002 cycles: 35000077 heartbeat IPC: 4 cumulative IPC: 3.99999 (Simulation time: 0 hr 4 min 44 sec) 
Heartbeat CPU 0 instructions: 150000002 cycles: 37500077 heartbeat IPC: 4 cumulative IPC: 3.99999 (Simulation time: 0 hr 5 min 4 sec) 
Heartbeat CPU 0 instructions: 160000002 cycles: 40000077 heartbeat IPC: 4 cumulative IPC: 3.99999 (Simulation time: 0 hr 5 min 25 sec) 
Heartbeat CPU 0 instructions: 170000002 cycles: 42500077 heartbeat IPC: 4 cumulative IPC: 3.99999 (Simulation time: 0 hr 5 min 45 sec) 
Heartbeat CPU 0 instructions: 180000002 cycles: 45000077 heartbeat IPC: 4 cumulative IPC: 3.99999 (Simulation time: 0 hr 6 min 5 sec) 
Heartbeat CPU 0 instructions: 190000002 cycles: 47500077 heartbeat IPC: 4 cumulative IPC: 3.99999 (Simulation time: 0 hr 6 min 25 sec) 
Heartbeat CPU 0 instructions: 200000002 cycles: 50000077 heartbeat IPC: 4 cumulative IPC: 3.99999 (Simulation time: 0 hr 6 min 46 sec) 

Warmup complete CPU 0 instructions: 200000002 cycles: 50000077 (Simulation time: 0 hr 6 min 46 sec) 

Heartbeat CPU 0 instructions: 210000001 cycles: 67283202 heartbeat IPC: 0.578599 cumulative IPC: 0.578599 (Simulation time: 0 hr 8 min 10 sec) 
Heartbeat CPU 0 instructions: 220000000 cycles: 84312166 heartbeat IPC: 0.587235 cumulative IPC: 0.582885 (Simulation time: 0 hr 9 min 34 sec) 
Heartbeat CPU 0 instructions: 230000004 cycles: 101360647 heartbeat IPC: 0.586563 cumulative IPC: 0.584106 (Simulation time: 0 hr 10 min 57 sec) 
Heartbeat CPU 0 instructions: 240000000 cycles: 118373617 heartbeat IPC: 0.587787 cumulative IPC: 0.585022 (Simulation time: 0 hr 12 min 21 sec) 
Heartbeat CPU 0 instructions: 250000001 cycles: 135452101 heartbeat IPC: 0.585532 cumulative IPC: 0.585124 (Simulation time: 0 hr 13 min 44 sec) 
Heartbeat CPU 0 instructions: 260000002 cycles: 152700995 heartbeat IPC: 0.579747 cumulative IPC: 0.584221 (Simulation time: 0 hr 15 min 8 sec) 
Heartbeat CPU 0 instructions: 270000000 cycles: 170024800 heartbeat IPC: 0.57724 cumulative IPC: 0.583213 (Simulation time: 0 hr 16 min 34 sec) 
Heartbeat CPU 0 instructions: 280000000 cycles: 187263779 heartbeat IPC: 0.580081 cumulative IPC: 0.58282 (Simulation time: 0 hr 17 min 59 sec) 
Heartbeat CPU 0 instructions: 290000001 cycles: 205123887 heartbeat IPC: 0.559907 cumulative IPC: 0.580182 (Simulation time: 0 hr 19 min 26 sec) 
Heartbeat CPU 0 instructions: 300000002 cycles: 222142629 heartbeat IPC: 0.587588 cumulative IPC: 0.580914 (Simulation time: 0 hr 20 min 50 sec) 
Heartbeat CPU 0 instructions: 310000000 cycles: 239361859 heartbeat IPC: 0.580746 cumulative IPC: 0.580899 (Simulation time: 0 hr 22 min 15 sec) 
Heartbeat CPU 0 instructions: 320000001 cycles: 256431497 heartbeat IPC: 0.585836 cumulative IPC: 0.581307 (Simulation time: 0 hr 23 min 39 sec) 
Heartbeat CPU 0 instructions: 330000000 cycles: 273651929 heartbeat IPC: 0.580705 cumulative IPC: 0.581261 (Simulation time: 0 hr 25 min 4 sec) 
Heartbeat CPU 0 instructions: 340000002 cycles: 290703395 heartbeat IPC: 0.58646 cumulative IPC: 0.581629 (Simulation time: 0 hr 26 min 29 sec) 
Heartbeat CPU 0 instructions: 350000000 cycles: 307787462 heartbeat IPC: 0.585341 cumulative IPC: 0.581875 (Simulation time: 0 hr 27 min 53 sec) 
Heartbeat CPU 0 instructions: 360000001 cycles: 324922747 heartbeat IPC: 0.583591 cumulative IPC: 0.581982 (Simulation time: 0 hr 29 min 17 sec) 
Heartbeat CPU 0 instructions: 370000002 cycles: 342135694 heartbeat IPC: 0.580958 cumulative IPC: 0.581922 (Simulation time: 0 hr 30 min 42 sec) 
Heartbeat CPU 0 instructions: 380000003 cycles: 359223649 heartbeat IPC: 0.585208 cumulative IPC: 0.582103 (Simulation time: 0 hr 32 min 6 sec) 
Heartbeat CPU 0 instructions: 390000000 cycles: 376454641 heartbeat IPC: 0.580349 cumulative IPC: 0.582011 (Simulation time: 0 hr 33 min 31 sec) 
Heartbeat CPU 0 instructions: 400000001 cycles: 393432160 heartbeat IPC: 0.589014 cumulative IPC: 0.582357 (Simulation time: 0 hr 34 min 55 sec) 
Heartbeat CPU 0 instructions: 410000002 cycles: 410796992 heartbeat IPC: 0.575877 cumulative IPC: 0.582045 (Simulation time: 0 hr 36 min 19 sec) 
Heartbeat CPU 0 instructions: 420000003 cycles: 428253974 heartbeat IPC: 0.572837 cumulative IPC: 0.58162 (Simulation time: 0 hr 37 min 45 sec) 
Heartbeat CPU 0 instructions: 430000000 cycles: 445117779 heartbeat IPC: 0.592986 cumulative IPC: 0.582105 (Simulation time: 0 hr 39 min 8 sec) 
Heartbeat CPU 0 instructions: 440000003 cycles: 462322423 heartbeat IPC: 0.581239 cumulative IPC: 0.582069 (Simulation time: 0 hr 40 min 32 sec) 
Heartbeat CPU 0 instructions: 450000002 cycles: 479398317 heartbeat IPC: 0.585621 cumulative IPC: 0.58221 (Simulation time: 0 hr 41 min 56 sec) 
Heartbeat CPU 0 instructions: 460000000 cycles: 496711481 heartbeat IPC: 0.577595 cumulative IPC: 0.582031 (Simulation time: 0 hr 43 min 20 sec) 
Heartbeat CPU 0 instructions: 470000004 cycles: 514129206 heartbeat IPC: 0.574128 cumulative IPC: 0.581735 (Simulation time: 0 hr 44 min 45 sec) 
Heartbeat CPU 0 instructions: 480000002 cycles: 531303146 heartbeat IPC: 0.582277 cumulative IPC: 0.581754 (Simulation time: 0 hr 46 min 9 sec) 
Heartbeat CPU 0 instructions: 490000002 cycles: 548681611 heartbeat IPC: 0.575425 cumulative IPC: 0.581533 (Simulation time: 0 hr 47 min 34 sec) 
Heartbeat CPU 0 instructions: 500000003 cycles: 565885980 heartbeat IPC: 0.581248 cumulative IPC: 0.581524 (Simulation time: 0 hr 48 min 58 sec) 
Heartbeat CPU 0 instructions: 510000004 cycles: 582974619 heartbeat IPC: 0.585184 cumulative IPC: 0.581641 (Simulation time: 0 hr 50 min 22 sec) 
Heartbeat CPU 0 instructions: 520000004 cycles: 600287400 heartbeat IPC: 0.577608 cumulative IPC: 0.581514 (Simulation time: 0 hr 51 min 47 sec) 
Heartbeat CPU 0 instructions: 530000001 cycles: 617677300 heartbeat IPC: 0.575046 cumulative IPC: 0.581316 (Simulation time: 0 hr 53 min 12 sec) 
Heartbeat CPU 0 instructions: 540000002 cycles: 634764442 heartbeat IPC: 0.585235 cumulative IPC: 0.581431 (Simulation time: 0 hr 54 min 37 sec) 
Heartbeat CPU 0 instructions: 550000004 cycles: 652028741 heartbeat IPC: 0.57923 cumulative IPC: 0.581368 (Simulation time: 0 hr 56 min 1 sec) 
Heartbeat CPU 0 instructions: 560000002 cycles: 669192494 heartbeat IPC: 0.582623 cumulative IPC: 0.581402 (Simulation time: 0 hr 57 min 25 sec) 
Heartbeat CPU 0 instructions: 570000003 cycles: 686576556 heartbeat IPC: 0.57524 cumulative IPC: 0.581234 (Simulation time: 0 hr 58 min 51 sec) 
Heartbeat CPU 0 instructions: 580000002 cycles: 703828050 heartbeat IPC: 0.57966 cumulative IPC: 0.581193 (Simulation time: 1 hr 0 min 15 sec) 
Heartbeat CPU 0 instructions: 590000003 cycles: 720762009 heartbeat IPC: 0.590529 cumulative IPC: 0.581428 (Simulation time: 1 hr 1 min 38 sec) 
Heartbeat CPU 0 instructions: 600000001 cycles: 737985233 heartbeat IPC: 0.580611 cumulative IPC: 0.581408 (Simulation time: 1 hr 3 min 2 sec) 
Heartbeat CPU 0 instructions: 610000003 cycles: 755077698 heartbeat IPC: 0.585053 cumulative IPC: 0.581496 (Simulation time: 1 hr 4 min 26 sec) 
Heartbeat CPU 0 instructions: 620000004 cycles: 772394772 heartbeat IPC: 0.577465 cumulative IPC: 0.5814 (Simulation time: 1 hr 5 min 50 sec) 
Heartbeat CPU 0 instructions: 630000003 cycles: 789913949 heartbeat IPC: 0.570803 cumulative IPC: 0.581149 (Simulation time: 1 hr 7 min 16 sec) 
Heartbeat CPU 0 instructions: 640000000 cycles: 807121421 heartbeat IPC: 0.581143 cumulative IPC: 0.581149 (Simulation time: 1 hr 8 min 41 sec) 
Heartbeat CPU 0 instructions: 650000003 cycles: 824506090 heartbeat IPC: 0.57522 cumulative IPC: 0.581016 (Simulation time: 1 hr 10 min 5 sec) 
Heartbeat CPU 0 instructions: 660000004 cycles: 841525755 heartbeat IPC: 0.587556 cumulative IPC: 0.581156 (Simulation time: 1 hr 11 min 29 sec) 
Heartbeat CPU 0 instructions: 670000003 cycles: 858664662 heartbeat IPC: 0.583468 cumulative IPC: 0.581205 (Simulation time: 1 hr 12 min 53 sec) 
Heartbeat CPU 0 instructions: 680000001 cycles: 875764456 heartbeat IPC: 0.584802 cumulative IPC: 0.58128 (Simulation time: 1 hr 14 min 16 sec) 
Heartbeat CPU 0 instructions: 690000002 cycles: 892899265 heartbeat IPC: 0.583607 cumulative IPC: 0.581327 (Simulation time: 1 hr 15 min 40 sec) 
Heartbeat CPU 0 instructions: 700000004 cycles: 910248881 heartbeat IPC: 0.576382 cumulative IPC: 0.581227 (Simulation time: 1 hr 17 min 4 sec) 
Finished CPU 0 instructions: 500000002 cycles: 860248804 cumulative IPC: 0.581227 (Simulation time: 1 hr 17 min 4 sec) 

ChampSim completed all CPUs

Region of Interest Statistics

CPU 0 cumulative IPC: 0.581227 instructions: 500000002 cycles: 860248804
cpu0_DTLB TOTAL     ACCESS:  107337204  HIT:  107230649  MISS:     106555
cpu0_DTLB LOAD      ACCESS:   65217722  HIT:   65157682  MISS:      60040
cpu0_DTLB RFO       ACCESS:   42119482  HIT:   42072967  MISS:      46515
cpu0_DTLB PREFETCH  ACCESS:          0  HIT:          0  MISS:          0
cpu0_DTLB WRITEBACK ACCESS:          0  HIT:          0  MISS:          0
cpu0_DTLB TRANSLATION ACCESS:          0  HIT:          0  MISS:          0
cpu0_DTLB PREFETCH  REQUESTED:          0  ISSUED:          0  USEFUL:          0  USELESS:          0
cpu0_DTLB AVERAGE MISS LATENCY: 215.758 cycles
cpu0_ITLB TOTAL     ACCESS:   31523379  HIT:   31523379  MISS:          0
cpu0_ITLB LOAD      ACCESS:   31523379  HIT:   31523379  MISS:          0
cpu0_ITLB RFO       ACCESS:          0  HIT:          0  MISS:          0
cpu0_ITLB PREFETCH  ACCESS:          0  HIT:          0  MISS:          0
cpu0_ITLB WRITEBACK ACCESS:          0  HIT:          0  MISS:          0
cpu0_ITLB TRANSLATION ACCESS:          0  HIT:          0  MISS:          0
cpu0_ITLB PREFETCH  REQUESTED:          0  ISSUED:          0  USEFUL:          0  USELESS:          0
cpu0_ITLB AVERAGE MISS LATENCY: -nan cycles
cpu0_STLB TOTAL     ACCESS:     106555  HIT:       6817  MISS:      99738
cpu0_STLB LOAD      ACCESS:      60040  HIT:       6817  MISS:      53223
cpu0_STLB RFO       ACCESS:      46515  HIT:          0  MISS:      46515
cpu0_STLB PREFETCH  ACCESS:          0  HIT:          0  MISS:          0
cpu0_STLB WRITEBACK ACCESS:          0  HIT:          0  MISS:          0
cpu0_STLB TRANSLATION ACCESS:          0  HIT:          0  MISS:          0
cpu0_STLB PREFETCH  REQUESTED:          0  ISSUED:          0  USEFUL:          0  USELESS:          0
cpu0_STLB AVERAGE MISS LATENCY: 220.094 cycles
cpu0_L1D TOTAL     ACCESS:  140348763  HIT:  133534114  MISS:    6814649
cpu0_L1D LOAD      ACCESS:   68272937  HIT:   64435219  MISS:    3837718
cpu0_L1D RFO       ACCESS:   71976138  HIT:   68999229  MISS:    2976909
cpu0_L1D PREFETCH  ACCESS:          0  HIT:          0  MISS:          0
cpu0_L1D WRITEBACK ACCESS:          0  HIT:          0  MISS:          0
cpu0_L1D TRANSLATION ACCESS:      99688  HIT:      99666  MISS:         22
cpu0_L1D PREFETCH  REQUESTED:          0  ISSUED:          0  USEFUL:          0  USELESS:          0
cpu0_L1D AVERAGE MISS LATENCY: 1273.79 cycles
cpu0_L2C TOTAL     ACCESS:    9790629  HIT:    3425188  MISS:    6365441
cpu0_L2C LOAD      ACCESS:    3837718  HIT:     449205  MISS:    3388513
cpu0_L2C RFO       ACCESS:    2976909  HIT:          0  MISS:    2976909
cpu0_L2C PREFETCH  ACCESS:          0  HIT:          0  MISS:          0
cpu0_L2C WRITEBACK ACCESS:    2975980  HIT:    2975980  MISS:          0
cpu0_L2C TRANSLATION ACCESS:         22  HIT:          3  MISS:         19
cpu0_L2C PREFETCH  REQUESTED:          0  ISSUED:          0  USEFUL:          0  USELESS:          0
cpu0_L2C AVERAGE MISS LATENCY: 1351.87 cycles
LLC TOTAL     ACCESS:   10907331  HIT:    1509430  MISS:    9397901
LLC LOAD      ACCESS:    3388513  HIT:    1505677  MISS:    1882836
LLC RFO       ACCESS:    2976909  HIT:          4  MISS:    2976905
LLC PREFETCH  ACCESS:    1562391  HIT:       3746  MISS:    1558645
LLC WRITEBACK ACCESS:    2979499  HIT:          3  MISS:    2979496
LLC TRANSLATION ACCESS:         19  HIT:          0  MISS:         19
LLC PREFETCH  REQUESTED:    3388513  ISSUED:    3388513  USEFUL:    3331171  USELESS:      52982
LLC AVERAGE MISS LATENCY: 1105.06 cycles

DRAM Statistics
 CHANNEL 0
 RQ ROW_BUFFER_HIT:      23428  ROW_BUFFER_MISS:    6394978
 DBUS AVG_CONGESTED_CYCLE:    4.00334
 WQ ROW_BUFFER_HIT:      31205  ROW_BUFFER_MISS:    2948690  FULL:          0


CPU 0 Branch Prediction Accuracy: 61.2419% MPKI: 3.27119 Average ROB Occupancy at Mispredict: 325.616
Branch type MPKI
BRANCH_DIRECT_JUMP: 0
BRANCH_INDIRECT: 0
BRANCH_CONDITIONAL: 3.27119
BRANCH_DIRECT_CALL: 0
BRANCH_INDIRECT_CALL: 0
BRANCH_RETURN: 0

