/home/caslab/workspace/sim/ChampSim/bin/champsim --warmup_instructions 200000000 --simulation_instructions 500000000/ /home/caslab/workspace/sim/traces/speccpu_by_champsim603.bwaves_s-1080B.champsimtrace.xz
start simulation for 603.bwaves_s-1080B.champsimtrace.xz

*** ChampSim Multicore Out-of-Order Simulator ***

Warmup Instructions: 200000000
Simulation Instructions: 500000000
Number of CPUs: 1
Off-chip DRAM Size: 4 GiB Channels: 1 Width: 64-bit Data Rate: 3200 MT/s

VirtualMemory physical capacity: 8588881920 num_ppages: 2096895
VirtualMemory page size: 4096 log2_page_size: 12

CPU 0 runs /home/caslab/workspace/sim/traces/speccpu_by_champsim/603.bwaves_s-1080B.champsimtrace.xz
CPU 0 Bimodal branch predictor
Basic BTB sets: 1024 ways: 8 indirect buffer size: 4096 RAS size: 64
LLC next line prefetcher
WARNING: The extended signature CACHE::prefetch_line(ip, base_addr, pf_addr, fill_this_level, prefetch_metadata) is deprecated.
WARNING: Use CACHE::prefetch_line(pf_addr, fill_this_level, prefetch_metadata) instead.
Heartbeat CPU 0 instructions: 10000002 cycles: 2619983 heartbeat IPC: 3.81682 cumulative IPC: 3.81682 (Simulation time: 0 hr 0 min 21 sec) 
Heartbeat CPU 0 instructions: 20000003 cycles: 5202835 heartbeat IPC: 3.87169 cumulative IPC: 3.84406 (Simulation time: 0 hr 0 min 42 sec) 
Heartbeat CPU 0 instructions: 30000003 cycles: 7887796 heartbeat IPC: 3.72445 cumulative IPC: 3.80334 (Simulation time: 0 hr 1 min 3 sec) 
Heartbeat CPU 0 instructions: 40000002 cycles: 10570122 heartbeat IPC: 3.72811 cumulative IPC: 3.78425 (Simulation time: 0 hr 1 min 23 sec) 
Heartbeat CPU 0 instructions: 50000001 cycles: 13250564 heartbeat IPC: 3.73073 cumulative IPC: 3.77342 (Simulation time: 0 hr 1 min 44 sec) 
Heartbeat CPU 0 instructions: 60000003 cycles: 15935802 heartbeat IPC: 3.72407 cumulative IPC: 3.76511 (Simulation time: 0 hr 2 min 5 sec) 
Heartbeat CPU 0 instructions: 70000002 cycles: 18620856 heartbeat IPC: 3.72432 cumulative IPC: 3.75923 (Simulation time: 0 hr 2 min 26 sec) 
Heartbeat CPU 0 instructions: 80000000 cycles: 21304489 heartbeat IPC: 3.72629 cumulative IPC: 3.75508 (Simulation time: 0 hr 2 min 48 sec) 
Heartbeat CPU 0 instructions: 90000002 cycles: 23986585 heartbeat IPC: 3.72843 cumulative IPC: 3.7521 (Simulation time: 0 hr 3 min 9 sec) 
Heartbeat CPU 0 instructions: 100000000 cycles: 26662331 heartbeat IPC: 3.73727 cumulative IPC: 3.75061 (Simulation time: 0 hr 3 min 30 sec) 
Heartbeat CPU 0 instructions: 110000003 cycles: 29336939 heartbeat IPC: 3.73887 cumulative IPC: 3.74954 (Simulation time: 0 hr 3 min 51 sec) 
Heartbeat CPU 0 instructions: 120000003 cycles: 32010612 heartbeat IPC: 3.74017 cumulative IPC: 3.74876 (Simulation time: 0 hr 4 min 11 sec) 
Heartbeat CPU 0 instructions: 130000000 cycles: 34681663 heartbeat IPC: 3.74384 cumulative IPC: 3.74838 (Simulation time: 0 hr 4 min 32 sec) 
Heartbeat CPU 0 instructions: 140000003 cycles: 37354946 heartbeat IPC: 3.74072 cumulative IPC: 3.74783 (Simulation time: 0 hr 4 min 53 sec) 
Heartbeat CPU 0 instructions: 150000002 cycles: 40031610 heartbeat IPC: 3.73599 cumulative IPC: 3.74704 (Simulation time: 0 hr 5 min 14 sec) 
Heartbeat CPU 0 instructions: 160000000 cycles: 42706275 heartbeat IPC: 3.73879 cumulative IPC: 3.74652 (Simulation time: 0 hr 5 min 35 sec) 
Heartbeat CPU 0 instructions: 170000000 cycles: 45383104 heartbeat IPC: 3.73576 cumulative IPC: 3.74589 (Simulation time: 0 hr 5 min 56 sec) 
Heartbeat CPU 0 instructions: 180000003 cycles: 48058545 heartbeat IPC: 3.7377 cumulative IPC: 3.74543 (Simulation time: 0 hr 6 min 17 sec) 
Heartbeat CPU 0 instructions: 190000002 cycles: 50734622 heartbeat IPC: 3.73681 cumulative IPC: 3.74498 (Simulation time: 0 hr 6 min 38 sec) 
Heartbeat CPU 0 instructions: 200000001 cycles: 53410696 heartbeat IPC: 3.73682 cumulative IPC: 3.74457 (Simulation time: 0 hr 6 min 59 sec) 

Warmup complete CPU 0 instructions: 200000001 cycles: 53410696 (Simulation time: 0 hr 6 min 59 sec) 

Heartbeat CPU 0 instructions: 210000001 cycles: 59348584 heartbeat IPC: 1.6841 cumulative IPC: 1.6841 (Simulation time: 0 hr 7 min 16 sec) 
Heartbeat CPU 0 instructions: 220000000 cycles: 65279971 heartbeat IPC: 1.68595 cumulative IPC: 1.68502 (Simulation time: 0 hr 7 min 33 sec) 
Heartbeat CPU 0 instructions: 230000002 cycles: 71216271 heartbeat IPC: 1.68455 cumulative IPC: 1.68487 (Simulation time: 0 hr 7 min 50 sec) 
Heartbeat CPU 0 instructions: 240000001 cycles: 77153022 heartbeat IPC: 1.68442 cumulative IPC: 1.68475 (Simulation time: 0 hr 8 min 7 sec) 
Heartbeat CPU 0 instructions: 250000002 cycles: 83085369 heartbeat IPC: 1.68567 cumulative IPC: 1.68494 (Simulation time: 0 hr 8 min 25 sec) 
Heartbeat CPU 0 instructions: 260000003 cycles: 89022020 heartbeat IPC: 1.68445 cumulative IPC: 1.68486 (Simulation time: 0 hr 8 min 42 sec) 
Heartbeat CPU 0 instructions: 270000001 cycles: 94955480 heartbeat IPC: 1.68536 cumulative IPC: 1.68493 (Simulation time: 0 hr 8 min 59 sec) 
Heartbeat CPU 0 instructions: 280000000 cycles: 100887338 heartbeat IPC: 1.68581 cumulative IPC: 1.68504 (Simulation time: 0 hr 9 min 16 sec) 
Heartbeat CPU 0 instructions: 290000000 cycles: 106823938 heartbeat IPC: 1.68447 cumulative IPC: 1.68498 (Simulation time: 0 hr 9 min 33 sec) 
Heartbeat CPU 0 instructions: 300000002 cycles: 112756808 heartbeat IPC: 1.68553 cumulative IPC: 1.68503 (Simulation time: 0 hr 9 min 51 sec) 
Heartbeat CPU 0 instructions: 310000000 cycles: 118693262 heartbeat IPC: 1.68451 cumulative IPC: 1.68498 (Simulation time: 0 hr 10 min 8 sec) 
Heartbeat CPU 0 instructions: 320000002 cycles: 124625083 heartbeat IPC: 1.68582 cumulative IPC: 1.68505 (Simulation time: 0 hr 10 min 25 sec) 
Heartbeat CPU 0 instructions: 330000000 cycles: 130564326 heartbeat IPC: 1.68372 cumulative IPC: 1.68495 (Simulation time: 0 hr 10 min 42 sec) 
Heartbeat CPU 0 instructions: 340000002 cycles: 136502686 heartbeat IPC: 1.68397 cumulative IPC: 1.68488 (Simulation time: 0 hr 10 min 59 sec) 
Heartbeat CPU 0 instructions: 350000000 cycles: 142443089 heartbeat IPC: 1.68339 cumulative IPC: 1.68478 (Simulation time: 0 hr 11 min 16 sec) 
Heartbeat CPU 0 instructions: 360000000 cycles: 148376921 heartbeat IPC: 1.68525 cumulative IPC: 1.68481 (Simulation time: 0 hr 11 min 33 sec) 
Heartbeat CPU 0 instructions: 370000001 cycles: 154317738 heartbeat IPC: 1.68327 cumulative IPC: 1.68472 (Simulation time: 0 hr 11 min 50 sec) 
Heartbeat CPU 0 instructions: 380000000 cycles: 160257631 heartbeat IPC: 1.68353 cumulative IPC: 1.68465 (Simulation time: 0 hr 12 min 7 sec) 
Heartbeat CPU 0 instructions: 390000000 cycles: 166193966 heartbeat IPC: 1.68454 cumulative IPC: 1.68465 (Simulation time: 0 hr 12 min 24 sec) 
Heartbeat CPU 0 instructions: 400000000 cycles: 172133896 heartbeat IPC: 1.68352 cumulative IPC: 1.68459 (Simulation time: 0 hr 12 min 41 sec) 
Heartbeat CPU 0 instructions: 410000001 cycles: 178082649 heartbeat IPC: 1.68102 cumulative IPC: 1.68442 (Simulation time: 0 hr 12 min 58 sec) 
Heartbeat CPU 0 instructions: 420000001 cycles: 184029401 heartbeat IPC: 1.68159 cumulative IPC: 1.68429 (Simulation time: 0 hr 13 min 15 sec) 
Heartbeat CPU 0 instructions: 430000002 cycles: 189947271 heartbeat IPC: 1.6898 cumulative IPC: 1.68453 (Simulation time: 0 hr 13 min 32 sec) 
Heartbeat CPU 0 instructions: 440000000 cycles: 195748077 heartbeat IPC: 1.7239 cumulative IPC: 1.68613 (Simulation time: 0 hr 13 min 49 sec) 
Heartbeat CPU 0 instructions: 450000003 cycles: 201538649 heartbeat IPC: 1.72695 cumulative IPC: 1.68773 (Simulation time: 0 hr 14 min 6 sec) 
Heartbeat CPU 0 instructions: 460000002 cycles: 207336605 heartbeat IPC: 1.72475 cumulative IPC: 1.68912 (Simulation time: 0 hr 14 min 23 sec) 
Heartbeat CPU 0 instructions: 470000003 cycles: 212750712 heartbeat IPC: 1.84703 cumulative IPC: 1.69449 (Simulation time: 0 hr 14 min 53 sec) 
Heartbeat CPU 0 instructions: 480000004 cycles: 218520310 heartbeat IPC: 1.73322 cumulative IPC: 1.69584 (Simulation time: 0 hr 15 min 14 sec) 
Heartbeat CPU 0 instructions: 490000002 cycles: 224465017 heartbeat IPC: 1.68217 cumulative IPC: 1.69537 (Simulation time: 0 hr 15 min 31 sec) 
Heartbeat CPU 0 instructions: 500000001 cycles: 230424671 heartbeat IPC: 1.67795 cumulative IPC: 1.69478 (Simulation time: 0 hr 15 min 48 sec) 
Heartbeat CPU 0 instructions: 510000001 cycles: 236464351 heartbeat IPC: 1.65572 cumulative IPC: 1.69349 (Simulation time: 0 hr 16 min 6 sec) 
Heartbeat CPU 0 instructions: 520000003 cycles: 242489176 heartbeat IPC: 1.6598 cumulative IPC: 1.69242 (Simulation time: 0 hr 16 min 23 sec) 
Heartbeat CPU 0 instructions: 530000001 cycles: 248987441 heartbeat IPC: 1.53887 cumulative IPC: 1.68732 (Simulation time: 0 hr 16 min 40 sec) 
Heartbeat CPU 0 instructions: 540000000 cycles: 255560195 heartbeat IPC: 1.52143 cumulative IPC: 1.68192 (Simulation time: 0 hr 16 min 58 sec) 
Heartbeat CPU 0 instructions: 550000001 cycles: 262133356 heartbeat IPC: 1.52134 cumulative IPC: 1.67687 (Simulation time: 0 hr 17 min 16 sec) 
Heartbeat CPU 0 instructions: 560000002 cycles: 268701552 heartbeat IPC: 1.52249 cumulative IPC: 1.67216 (Simulation time: 0 hr 17 min 33 sec) 
Heartbeat CPU 0 instructions: 570000003 cycles: 275282174 heartbeat IPC: 1.51961 cumulative IPC: 1.66763 (Simulation time: 0 hr 17 min 51 sec) 
Heartbeat CPU 0 instructions: 580000004 cycles: 281850701 heartbeat IPC: 1.52241 cumulative IPC: 1.66346 (Simulation time: 0 hr 18 min 9 sec) 
Heartbeat CPU 0 instructions: 590000003 cycles: 288473938 heartbeat IPC: 1.50984 cumulative IPC: 1.65913 (Simulation time: 0 hr 18 min 26 sec) 
Heartbeat CPU 0 instructions: 600000000 cycles: 295107218 heartbeat IPC: 1.50755 cumulative IPC: 1.65497 (Simulation time: 0 hr 18 min 45 sec) 
Heartbeat CPU 0 instructions: 610000001 cycles: 301741003 heartbeat IPC: 1.50744 cumulative IPC: 1.65103 (Simulation time: 0 hr 19 min 3 sec) 
Heartbeat CPU 0 instructions: 620000001 cycles: 308375003 heartbeat IPC: 1.50739 cumulative IPC: 1.64729 (Simulation time: 0 hr 19 min 21 sec) 
Heartbeat CPU 0 instructions: 630000004 cycles: 315008798 heartbeat IPC: 1.50743 cumulative IPC: 1.64374 (Simulation time: 0 hr 19 min 40 sec) 
Heartbeat CPU 0 instructions: 640000002 cycles: 321545844 heartbeat IPC: 1.52974 cumulative IPC: 1.64096 (Simulation time: 0 hr 19 min 58 sec) 
Heartbeat CPU 0 instructions: 650000004 cycles: 327547141 heartbeat IPC: 1.66631 cumulative IPC: 1.64152 (Simulation time: 0 hr 20 min 16 sec) 
Heartbeat CPU 0 instructions: 660000002 cycles: 333521119 heartbeat IPC: 1.67393 cumulative IPC: 1.64221 (Simulation time: 0 hr 20 min 34 sec) 
Heartbeat CPU 0 instructions: 670000001 cycles: 339774554 heartbeat IPC: 1.59912 cumulative IPC: 1.64127 (Simulation time: 0 hr 20 min 52 sec) 
Heartbeat CPU 0 instructions: 680000002 cycles: 345710567 heartbeat IPC: 1.68463 cumulative IPC: 1.64215 (Simulation time: 0 hr 21 min 10 sec) 
Heartbeat CPU 0 instructions: 690000001 cycles: 351661305 heartbeat IPC: 1.68046 cumulative IPC: 1.64291 (Simulation time: 0 hr 21 min 27 sec) 
Heartbeat CPU 0 instructions: 700000001 cycles: 357607302 heartbeat IPC: 1.6818 cumulative IPC: 1.64367 (Simulation time: 0 hr 21 min 45 sec) 
Finished CPU 0 instructions: 500000000 cycles: 304196606 cumulative IPC: 1.64367 (Simulation time: 0 hr 21 min 45 sec) 

ChampSim completed all CPUs

Region of Interest Statistics

CPU 0 cumulative IPC: 1.64367 instructions: 500000000 cycles: 304196606
cpu0_L1I TOTAL     ACCESS:    5161173  HIT:    5161173  MISS:          0
cpu0_L1I LOAD      ACCESS:    5161173  HIT:    5161173  MISS:          0
cpu0_L1I RFO       ACCESS:          0  HIT:          0  MISS:          0
cpu0_L1I PREFETCH  ACCESS:          0  HIT:          0  MISS:          0
cpu0_L1I WRITEBACK ACCESS:          0  HIT:          0  MISS:          0
cpu0_L1I TRANSLATION ACCESS:          0  HIT:          0  MISS:          0
cpu0_L1I PREFETCH  REQUESTED:          0  ISSUED:          0  USEFUL:          0  USELESS:          0
cpu0_L1I AVERAGE MISS LATENCY: -nan cycles
cpu0_DTLB TOTAL     ACCESS:   78216361  HIT:   78214554  MISS:       1807
cpu0_DTLB LOAD      ACCESS:   66479684  HIT:   66479515  MISS:        169
cpu0_DTLB RFO       ACCESS:   11736677  HIT:   11735039  MISS:       1638
cpu0_DTLB PREFETCH  ACCESS:          0  HIT:          0  MISS:          0
cpu0_DTLB WRITEBACK ACCESS:          0  HIT:          0  MISS:          0
cpu0_DTLB TRANSLATION ACCESS:          0  HIT:          0  MISS:          0
cpu0_DTLB PREFETCH  REQUESTED:          0  ISSUED:          0  USEFUL:          0  USELESS:          0
cpu0_DTLB AVERAGE MISS LATENCY: 216.194 cycles
cpu0_ITLB TOTAL     ACCESS:   58530027  HIT:   58530027  MISS:          0
cpu0_ITLB LOAD      ACCESS:   58530027  HIT:   58530027  MISS:          0
cpu0_ITLB RFO       ACCESS:          0  HIT:          0  MISS:          0
cpu0_ITLB PREFETCH  ACCESS:          0  HIT:          0  MISS:          0
cpu0_ITLB WRITEBACK ACCESS:          0  HIT:          0  MISS:          0
cpu0_ITLB TRANSLATION ACCESS:          0  HIT:          0  MISS:          0
cpu0_ITLB PREFETCH  REQUESTED:          0  ISSUED:          0  USEFUL:          0  USELESS:          0
cpu0_ITLB AVERAGE MISS LATENCY: -nan cycles
cpu0_STLB TOTAL     ACCESS:       1807  HIT:          7  MISS:       1800
cpu0_STLB LOAD      ACCESS:        169  HIT:          5  MISS:        164
cpu0_STLB RFO       ACCESS:       1638  HIT:          2  MISS:       1636
cpu0_STLB PREFETCH  ACCESS:          0  HIT:          0  MISS:          0
cpu0_STLB WRITEBACK ACCESS:          0  HIT:          0  MISS:          0
cpu0_STLB TRANSLATION ACCESS:          0  HIT:          0  MISS:          0
cpu0_STLB PREFETCH  REQUESTED:          0  ISSUED:          0  USEFUL:          0  USELESS:          0
cpu0_STLB AVERAGE MISS LATENCY: 208 cycles
cpu0_L1D TOTAL     ACCESS:   84668284  HIT:   84552950  MISS:     115334
cpu0_L1D LOAD      ACCESS:   64727077  HIT:   64716569  MISS:      10508
cpu0_L1D RFO       ACCESS:   19939407  HIT:   19834581  MISS:     104826
cpu0_L1D PREFETCH  ACCESS:          0  HIT:          0  MISS:          0
cpu0_L1D WRITEBACK ACCESS:          0  HIT:          0  MISS:          0
cpu0_L1D TRANSLATION ACCESS:       1800  HIT:       1800  MISS:          0
cpu0_L1D PREFETCH  REQUESTED:          0  ISSUED:          0  USEFUL:          0  USELESS:          0
cpu0_L1D AVERAGE MISS LATENCY: 196.417 cycles
cpu0_L2C TOTAL     ACCESS:     219798  HIT:     104590  MISS:     115208
cpu0_L2C LOAD      ACCESS:      10508  HIT:         35  MISS:      10473
cpu0_L2C RFO       ACCESS:     104826  HIT:         91  MISS:     104735
cpu0_L2C PREFETCH  ACCESS:          0  HIT:          0  MISS:          0
cpu0_L2C WRITEBACK ACCESS:     104464  HIT:     104464  MISS:          0
cpu0_L2C TRANSLATION ACCESS:          0  HIT:          0  MISS:          0
cpu0_L2C PREFETCH  REQUESTED:          0  ISSUED:          0  USEFUL:          0  USELESS:          0
cpu0_L2C AVERAGE MISS LATENCY: 185.618 cycles
LLC TOTAL     ACCESS:     125681  HIT:      10309  MISS:     115372
LLC LOAD      ACCESS:      10473  HIT:      10309  MISS:        164
LLC RFO       ACCESS:     104735  HIT:          0  MISS:     104735
LLC PREFETCH  ACCESS:      10473  HIT:          0  MISS:      10473
LLC WRITEBACK ACCESS:          0  HIT:          0  MISS:          0
LLC TRANSLATION ACCESS:          0  HIT:          0  MISS:          0
LLC PREFETCH  REQUESTED:      10473  ISSUED:      10473  USEFUL:      10309  USELESS:        172
LLC AVERAGE MISS LATENCY: 179.457 cycles

DRAM Statistics
 CHANNEL 0
 RQ ROW_BUFFER_HIT:          0  ROW_BUFFER_MISS:     115372
 DBUS AVG_CONGESTED_CYCLE:    3.06823
 WQ ROW_BUFFER_HIT:          0  ROW_BUFFER_MISS:          0  FULL:          0


CPU 0 Branch Prediction Accuracy: 80.8417% MPKI: 28.002 Average ROB Occupancy at Mispredict: 46.7374
Branch type MPKI
BRANCH_DIRECT_JUMP: 0
BRANCH_INDIRECT: 0
BRANCH_CONDITIONAL: 28.002
BRANCH_DIRECT_CALL: 0
BRANCH_INDIRECT_CALL: 0
BRANCH_RETURN: 0

