/home/caslab/workspace/sim/ChampSim/bin/champsim --warmup_instructions 200000000 --simulation_instructions 500000000/ /home/caslab/workspace/sim/traces/speccpu_by_champsim605.mcf_s-994B.champsimtrace.xz
start simulation for 605.mcf_s-994B.champsimtrace.xz

*** ChampSim Multicore Out-of-Order Simulator ***

Warmup Instructions: 200000000
Simulation Instructions: 500000000
Number of CPUs: 1
Off-chip DRAM Size: 4 GiB Channels: 1 Width: 64-bit Data Rate: 3200 MT/s

VirtualMemory physical capacity: 8588881920 num_ppages: 2096895
VirtualMemory page size: 4096 log2_page_size: 12

CPU 0 runs /home/caslab/workspace/sim/traces/speccpu_by_champsim/605.mcf_s-994B.champsimtrace.xz
CPU 0 Bimodal branch predictor
Basic BTB sets: 1024 ways: 8 indirect buffer size: 4096 RAS size: 64
LLC next line prefetcher
WARNING: The extended signature CACHE::prefetch_line(ip, base_addr, pf_addr, fill_this_level, prefetch_metadata) is deprecated.
WARNING: Use CACHE::prefetch_line(pf_addr, fill_this_level, prefetch_metadata) instead.
Heartbeat CPU 0 instructions: 10000000 cycles: 2902146 heartbeat IPC: 3.44573 cumulative IPC: 3.44573 (Simulation time: 0 hr 0 min 27 sec) 
Heartbeat CPU 0 instructions: 20000003 cycles: 5843978 heartbeat IPC: 3.39924 cumulative IPC: 3.42233 (Simulation time: 0 hr 0 min 55 sec) 
Heartbeat CPU 0 instructions: 30000001 cycles: 8782856 heartbeat IPC: 3.40266 cumulative IPC: 3.41575 (Simulation time: 0 hr 1 min 23 sec) 
Heartbeat CPU 0 instructions: 40000000 cycles: 11678903 heartbeat IPC: 3.45298 cumulative IPC: 3.42498 (Simulation time: 0 hr 1 min 50 sec) 
Heartbeat CPU 0 instructions: 50000001 cycles: 14810368 heartbeat IPC: 3.19339 cumulative IPC: 3.37601 (Simulation time: 0 hr 2 min 22 sec) 
Heartbeat CPU 0 instructions: 60000000 cycles: 17786111 heartbeat IPC: 3.3605 cumulative IPC: 3.37342 (Simulation time: 0 hr 2 min 50 sec) 
Heartbeat CPU 0 instructions: 70000002 cycles: 20755583 heartbeat IPC: 3.3676 cumulative IPC: 3.37259 (Simulation time: 0 hr 3 min 18 sec) 
Heartbeat CPU 0 instructions: 80000001 cycles: 23685676 heartbeat IPC: 3.41286 cumulative IPC: 3.37757 (Simulation time: 0 hr 3 min 46 sec) 
Heartbeat CPU 0 instructions: 90000003 cycles: 26620320 heartbeat IPC: 3.40757 cumulative IPC: 3.38088 (Simulation time: 0 hr 4 min 13 sec) 
Heartbeat CPU 0 instructions: 100000000 cycles: 29501802 heartbeat IPC: 3.47044 cumulative IPC: 3.38962 (Simulation time: 0 hr 4 min 40 sec) 
Heartbeat CPU 0 instructions: 110000002 cycles: 32528914 heartbeat IPC: 3.30348 cumulative IPC: 3.38161 (Simulation time: 0 hr 5 min 10 sec) 
Heartbeat CPU 0 instructions: 120000001 cycles: 35475514 heartbeat IPC: 3.39374 cumulative IPC: 3.38261 (Simulation time: 0 hr 5 min 38 sec) 
Heartbeat CPU 0 instructions: 130000000 cycles: 38412433 heartbeat IPC: 3.40493 cumulative IPC: 3.38432 (Simulation time: 0 hr 6 min 6 sec) 
Heartbeat CPU 0 instructions: 140000004 cycles: 41351720 heartbeat IPC: 3.40219 cumulative IPC: 3.38559 (Simulation time: 0 hr 6 min 35 sec) 
Heartbeat CPU 0 instructions: 150000003 cycles: 44475866 heartbeat IPC: 3.20087 cumulative IPC: 3.37262 (Simulation time: 0 hr 7 min 7 sec) 
Heartbeat CPU 0 instructions: 160000000 cycles: 47407278 heartbeat IPC: 3.41132 cumulative IPC: 3.37501 (Simulation time: 0 hr 7 min 35 sec) 
Heartbeat CPU 0 instructions: 170000004 cycles: 50308312 heartbeat IPC: 3.44705 cumulative IPC: 3.37916 (Simulation time: 0 hr 8 min 2 sec) 
Heartbeat CPU 0 instructions: 180000003 cycles: 53446220 heartbeat IPC: 3.18684 cumulative IPC: 3.36787 (Simulation time: 0 hr 8 min 34 sec) 
Heartbeat CPU 0 instructions: 190000000 cycles: 56331403 heartbeat IPC: 3.46598 cumulative IPC: 3.3729 (Simulation time: 0 hr 9 min 1 sec) 
Heartbeat CPU 0 instructions: 200000000 cycles: 59247981 heartbeat IPC: 3.42868 cumulative IPC: 3.37564 (Simulation time: 0 hr 9 min 29 sec) 

Warmup complete CPU 0 instructions: 200000005 cycles: 59247982 (Simulation time: 0 hr 9 min 29 sec) 

Heartbeat CPU 0 instructions: 210000002 cycles: 69547493 heartbeat IPC: 0.97092 cumulative IPC: 0.97092 (Simulation time: 0 hr 9 min 51 sec) 
Heartbeat CPU 0 instructions: 220000002 cycles: 88101748 heartbeat IPC: 0.53896 cumulative IPC: 0.69315 (Simulation time: 0 hr 10 min 21 sec) 
Heartbeat CPU 0 instructions: 230000000 cycles: 97275213 heartbeat IPC: 1.0901 cumulative IPC: 0.788908 (Simulation time: 0 hr 10 min 42 sec) 
Heartbeat CPU 0 instructions: 240000001 cycles: 106237829 heartbeat IPC: 1.11575 cumulative IPC: 0.851248 (Simulation time: 0 hr 11 min 3 sec) 
Heartbeat CPU 0 instructions: 250000001 cycles: 114478919 heartbeat IPC: 1.21343 cumulative IPC: 0.90529 (Simulation time: 0 hr 11 min 24 sec) 
Heartbeat CPU 0 instructions: 260000004 cycles: 182878116 heartbeat IPC: 0.146201 cumulative IPC: 0.485319 (Simulation time: 0 hr 12 min 29 sec) 
Heartbeat CPU 0 instructions: 270000004 cycles: 242110096 heartbeat IPC: 0.168828 cumulative IPC: 0.382802 (Simulation time: 0 hr 13 min 28 sec) 
Heartbeat CPU 0 instructions: 280000002 cycles: 254944926 heartbeat IPC: 0.77913 cumulative IPC: 0.408795 (Simulation time: 0 hr 13 min 52 sec) 
Heartbeat CPU 0 instructions: 290000001 cycles: 270592181 heartbeat IPC: 0.63909 cumulative IPC: 0.425846 (Simulation time: 0 hr 14 min 19 sec) 
Heartbeat CPU 0 instructions: 300000001 cycles: 281497937 heartbeat IPC: 0.916947 cumulative IPC: 0.449944 (Simulation time: 0 hr 14 min 41 sec) 
Heartbeat CPU 0 instructions: 310000001 cycles: 290720081 heartbeat IPC: 1.08435 cumulative IPC: 0.475219 (Simulation time: 0 hr 15 min 2 sec) 
Heartbeat CPU 0 instructions: 320000001 cycles: 300020163 heartbeat IPC: 1.07526 cumulative IPC: 0.498396 (Simulation time: 0 hr 15 min 23 sec) 
Heartbeat CPU 0 instructions: 330000000 cycles: 311381483 heartbeat IPC: 0.880179 cumulative IPC: 0.5156 (Simulation time: 0 hr 15 min 46 sec) 
Heartbeat CPU 0 instructions: 340000004 cycles: 319710270 heartbeat IPC: 1.20066 cumulative IPC: 0.537506 (Simulation time: 0 hr 16 min 7 sec) 
Heartbeat CPU 0 instructions: 350000002 cycles: 327862290 heartbeat IPC: 1.22669 cumulative IPC: 0.558421 (Simulation time: 0 hr 16 min 28 sec) 
Heartbeat CPU 0 instructions: 360000000 cycles: 342945876 heartbeat IPC: 0.662972 cumulative IPC: 0.56398 (Simulation time: 0 hr 16 min 54 sec) 
Heartbeat CPU 0 instructions: 370000000 cycles: 352396561 heartbeat IPC: 1.05812 cumulative IPC: 0.579911 (Simulation time: 0 hr 17 min 15 sec) 
Heartbeat CPU 0 instructions: 380000000 cycles: 361167749 heartbeat IPC: 1.1401 cumulative IPC: 0.596185 (Simulation time: 0 hr 17 min 36 sec) 
Heartbeat CPU 0 instructions: 390000000 cycles: 378309836 heartbeat IPC: 0.58336 cumulative IPC: 0.595496 (Simulation time: 0 hr 18 min 3 sec) 
Heartbeat CPU 0 instructions: 400000004 cycles: 391928885 heartbeat IPC: 0.734266 cumulative IPC: 0.601177 (Simulation time: 0 hr 18 min 29 sec) 
Heartbeat CPU 0 instructions: 410000004 cycles: 400491828 heartbeat IPC: 1.16782 cumulative IPC: 0.615396 (Simulation time: 0 hr 18 min 50 sec) 
Heartbeat CPU 0 instructions: 420000003 cycles: 408623707 heartbeat IPC: 1.22973 cumulative IPC: 0.629695 (Simulation time: 0 hr 19 min 11 sec) 
Heartbeat CPU 0 instructions: 430000001 cycles: 417951346 heartbeat IPC: 1.07208 cumulative IPC: 0.641198 (Simulation time: 0 hr 19 min 33 sec) 
Heartbeat CPU 0 instructions: 440000004 cycles: 430817628 heartbeat IPC: 0.777226 cumulative IPC: 0.645909 (Simulation time: 0 hr 19 min 57 sec) 
Heartbeat CPU 0 instructions: 450000000 cycles: 438872226 heartbeat IPC: 1.24153 cumulative IPC: 0.658546 (Simulation time: 0 hr 20 min 17 sec) 
Heartbeat CPU 0 instructions: 460000004 cycles: 447555577 heartbeat IPC: 1.15163 cumulative IPC: 0.669572 (Simulation time: 0 hr 20 min 39 sec) 
Heartbeat CPU 0 instructions: 470000001 cycles: 455714132 heartbeat IPC: 1.22571 cumulative IPC: 0.681017 (Simulation time: 0 hr 21 min 1 sec) 
Heartbeat CPU 0 instructions: 480000001 cycles: 463965979 heartbeat IPC: 1.21185 cumulative IPC: 0.69184 (Simulation time: 0 hr 21 min 21 sec) 
Heartbeat CPU 0 instructions: 490000003 cycles: 483322617 heartbeat IPC: 0.516619 cumulative IPC: 0.683842 (Simulation time: 0 hr 21 min 52 sec) 
Heartbeat CPU 0 instructions: 500000002 cycles: 492359449 heartbeat IPC: 1.10658 cumulative IPC: 0.692662 (Simulation time: 0 hr 22 min 13 sec) 
Heartbeat CPU 0 instructions: 510000004 cycles: 501140508 heartbeat IPC: 1.13882 cumulative IPC: 0.701528 (Simulation time: 0 hr 22 min 34 sec) 
Heartbeat CPU 0 instructions: 520000004 cycles: 509489049 heartbeat IPC: 1.19781 cumulative IPC: 0.71073 (Simulation time: 0 hr 22 min 55 sec) 
Heartbeat CPU 0 instructions: 530000002 cycles: 518052457 heartbeat IPC: 1.16776 cumulative IPC: 0.719261 (Simulation time: 0 hr 23 min 16 sec) 
Heartbeat CPU 0 instructions: 540000000 cycles: 571991908 heartbeat IPC: 0.185393 cumulative IPC: 0.663099 (Simulation time: 0 hr 24 min 12 sec) 
Heartbeat CPU 0 instructions: 550000001 cycles: 646556605 heartbeat IPC: 0.134112 cumulative IPC: 0.595939 (Simulation time: 0 hr 25 min 23 sec) 
Heartbeat CPU 0 instructions: 560000001 cycles: 722095141 heartbeat IPC: 0.132383 cumulative IPC: 0.543112 (Simulation time: 0 hr 26 min 35 sec) 
Heartbeat CPU 0 instructions: 570000004 cycles: 798654338 heartbeat IPC: 0.130618 cumulative IPC: 0.500401 (Simulation time: 0 hr 27 min 47 sec) 
Heartbeat CPU 0 instructions: 580000000 cycles: 874152108 heartbeat IPC: 0.132454 cumulative IPC: 0.466313 (Simulation time: 0 hr 28 min 59 sec) 
Heartbeat CPU 0 instructions: 590000004 cycles: 950673039 heartbeat IPC: 0.130683 cumulative IPC: 0.437502 (Simulation time: 0 hr 30 min 11 sec) 
Heartbeat CPU 0 instructions: 600000003 cycles: 1026171554 heartbeat IPC: 0.132453 cumulative IPC: 0.413683 (Simulation time: 0 hr 31 min 23 sec) 
Heartbeat CPU 0 instructions: 610000004 cycles: 1101221983 heartbeat IPC: 0.133244 cumulative IPC: 0.393484 (Simulation time: 0 hr 32 min 35 sec) 
Heartbeat CPU 0 instructions: 620000000 cycles: 1156755930 heartbeat IPC: 0.18007 cumulative IPC: 0.382685 (Simulation time: 0 hr 33 min 36 sec) 
Heartbeat CPU 0 instructions: 630000003 cycles: 1215686951 heartbeat IPC: 0.16969 cumulative IPC: 0.371831 (Simulation time: 0 hr 34 min 42 sec) 
Heartbeat CPU 0 instructions: 640000000 cycles: 1285840114 heartbeat IPC: 0.142545 cumulative IPC: 0.358717 (Simulation time: 0 hr 36 min 1 sec) 
Heartbeat CPU 0 instructions: 650000000 cycles: 1342262861 heartbeat IPC: 0.177233 cumulative IPC: 0.350736 (Simulation time: 0 hr 37 min 0 sec) 
Heartbeat CPU 0 instructions: 660000001 cycles: 1393446167 heartbeat IPC: 0.195376 cumulative IPC: 0.344776 (Simulation time: 0 hr 37 min 51 sec) 
Heartbeat CPU 0 instructions: 670000000 cycles: 1459196985 heartbeat IPC: 0.152089 cumulative IPC: 0.335726 (Simulation time: 0 hr 38 min 54 sec) 
Heartbeat CPU 0 instructions: 680000001 cycles: 1502717240 heartbeat IPC: 0.229778 cumulative IPC: 0.332532 (Simulation time: 0 hr 39 min 44 sec) 
Heartbeat CPU 0 instructions: 690000002 cycles: 1522873160 heartbeat IPC: 0.496132 cumulative IPC: 0.334785 (Simulation time: 0 hr 40 min 20 sec) 
Heartbeat CPU 0 instructions: 700000002 cycles: 1532558436 heartbeat IPC: 1.0325 cumulative IPC: 0.339372 (Simulation time: 0 hr 40 min 42 sec) 
Finished CPU 0 instructions: 500000002 cycles: 1473310455 cumulative IPC: 0.339372 (Simulation time: 0 hr 40 min 42 sec) 

ChampSim completed all CPUs

Region of Interest Statistics

CPU 0 cumulative IPC: 0.339372 instructions: 500000002 cycles: 1473310455
cpu0_L1I TOTAL     ACCESS:     176684  HIT:     176684  MISS:          0
cpu0_L1I LOAD      ACCESS:     176684  HIT:     176684  MISS:          0
cpu0_L1I RFO       ACCESS:          0  HIT:          0  MISS:          0
cpu0_L1I PREFETCH  ACCESS:          0  HIT:          0  MISS:          0
cpu0_L1I WRITEBACK ACCESS:          0  HIT:          0  MISS:          0
cpu0_L1I TRANSLATION ACCESS:          0  HIT:          0  MISS:          0
cpu0_L1I PREFETCH  REQUESTED:          0  ISSUED:          0  USEFUL:          0  USELESS:          0
cpu0_L1I AVERAGE MISS LATENCY: -nan cycles
cpu0_DTLB TOTAL     ACCESS:  150453252  HIT:  145902360  MISS:    4550892
cpu0_DTLB LOAD      ACCESS:  117702032  HIT:  113152271  MISS:    4549761
cpu0_DTLB RFO       ACCESS:   32751220  HIT:   32750089  MISS:       1131
cpu0_DTLB PREFETCH  ACCESS:          0  HIT:          0  MISS:          0
cpu0_DTLB WRITEBACK ACCESS:          0  HIT:          0  MISS:          0
cpu0_DTLB TRANSLATION ACCESS:          0  HIT:          0  MISS:          0
cpu0_DTLB PREFETCH  REQUESTED:          0  ISSUED:          0  USEFUL:          0  USELESS:          0
cpu0_DTLB AVERAGE MISS LATENCY: 20.3628 cycles
cpu0_ITLB TOTAL     ACCESS:   87345170  HIT:   87345170  MISS:          0
cpu0_ITLB LOAD      ACCESS:   87345170  HIT:   87345170  MISS:          0
cpu0_ITLB RFO       ACCESS:          0  HIT:          0  MISS:          0
cpu0_ITLB PREFETCH  ACCESS:          0  HIT:          0  MISS:          0
cpu0_ITLB WRITEBACK ACCESS:          0  HIT:          0  MISS:          0
cpu0_ITLB TRANSLATION ACCESS:          0  HIT:          0  MISS:          0
cpu0_ITLB PREFETCH  REQUESTED:          0  ISSUED:          0  USEFUL:          0  USELESS:          0
cpu0_ITLB AVERAGE MISS LATENCY: -nan cycles
cpu0_STLB TOTAL     ACCESS:    4550892  HIT:    2024987  MISS:    2525905
cpu0_STLB LOAD      ACCESS:    4549761  HIT:    2023900  MISS:    2525861
cpu0_STLB RFO       ACCESS:       1131  HIT:       1087  MISS:         44
cpu0_STLB PREFETCH  ACCESS:          0  HIT:          0  MISS:          0
cpu0_STLB WRITEBACK ACCESS:          0  HIT:          0  MISS:          0
cpu0_STLB TRANSLATION ACCESS:          0  HIT:          0  MISS:          0
cpu0_STLB PREFETCH  REQUESTED:          0  ISSUED:          0  USEFUL:          0  USELESS:          0
cpu0_STLB AVERAGE MISS LATENCY: 20.4163 cycles
cpu0_L1D TOTAL     ACCESS:  194566948  HIT:  181794776  MISS:   12772172
cpu0_L1D LOAD      ACCESS:  142262848  HIT:  129494890  MISS:   12767958
cpu0_L1D RFO       ACCESS:   49782718  HIT:   49780216  MISS:       2502
cpu0_L1D PREFETCH  ACCESS:          0  HIT:          0  MISS:          0
cpu0_L1D WRITEBACK ACCESS:          0  HIT:          0  MISS:          0
cpu0_L1D TRANSLATION ACCESS:    2521382  HIT:    2519670  MISS:       1712
cpu0_L1D PREFETCH  REQUESTED:          0  ISSUED:          0  USEFUL:          0  USELESS:          0
cpu0_L1D AVERAGE MISS LATENCY: 137.071 cycles
cpu0_L2C TOTAL     ACCESS:   13890235  HIT:    6625172  MISS:    7265063
cpu0_L2C LOAD      ACCESS:   12767958  HIT:    5503381  MISS:    7264577
cpu0_L2C RFO       ACCESS:       2502  HIT:       2296  MISS:        206
cpu0_L2C PREFETCH  ACCESS:          0  HIT:          0  MISS:          0
cpu0_L2C WRITEBACK ACCESS:    1118063  HIT:    1118052  MISS:         11
cpu0_L2C TRANSLATION ACCESS:       1712  HIT:       1443  MISS:        269
cpu0_L2C PREFETCH  REQUESTED:          0  ISSUED:          0  USEFUL:          0  USELESS:          0
cpu0_L2C AVERAGE MISS LATENCY: 221.426 cycles
LLC TOTAL     ACCESS:   14795525  HIT:    1737169  MISS:   13058356
LLC LOAD      ACCESS:    7264577  HIT:     734618  MISS:    6529959
LLC RFO       ACCESS:        206  HIT:          1  MISS:        205
LLC PREFETCH  ACCESS:    6876038  HIT:    1002548  MISS:    5873490
LLC WRITEBACK ACCESS:     654435  HIT:          2  MISS:     654433
LLC TRANSLATION ACCESS:        269  HIT:          0  MISS:        269
LLC PREFETCH  REQUESTED:    7264577  ISSUED:    7264577  USEFUL:     792714  USELESS:    5143816
LLC AVERAGE MISS LATENCY: 235.914 cycles

DRAM Statistics
 CHANNEL 0
 RQ ROW_BUFFER_HIT:     254999  ROW_BUFFER_MISS:   12148915
 DBUS AVG_CONGESTED_CYCLE:    3.84472
 WQ ROW_BUFFER_HIT:     107653  ROW_BUFFER_MISS:     545441  FULL:          0


CPU 0 Branch Prediction Accuracy: 90.9% MPKI: 24.5122 Average ROB Occupancy at Mispredict: 26.4959
Branch type MPKI
BRANCH_DIRECT_JUMP: 0
BRANCH_INDIRECT: 0
BRANCH_CONDITIONAL: 24.5117
BRANCH_DIRECT_CALL: 0
BRANCH_INDIRECT_CALL: 0.000482
BRANCH_RETURN: 4e-06

