/home/caslab/workspace/sim/ChampSim/bin/champsim --warmup_instructions 200000000 --simulation_instructions 500000000/ /home/caslab/workspace/sim/traces/speccpu_by_champsim605.mcf_s-1554B.champsimtrace.xz
start simulation for 605.mcf_s-1554B.champsimtrace.xz

*** ChampSim Multicore Out-of-Order Simulator ***

Warmup Instructions: 200000000
Simulation Instructions: 500000000
Number of CPUs: 1
Off-chip DRAM Size: 4 GiB Channels: 1 Width: 64-bit Data Rate: 3200 MT/s

VirtualMemory physical capacity: 8588881920 num_ppages: 2096895
VirtualMemory page size: 4096 log2_page_size: 12

CPU 0 runs /home/caslab/workspace/sim/traces/speccpu_by_champsim/605.mcf_s-1554B.champsimtrace.xz
CPU 0 Bimodal branch predictor
Basic BTB sets: 1024 ways: 8 indirect buffer size: 4096 RAS size: 64
LLC next line prefetcher
WARNING: The extended signature CACHE::prefetch_line(ip, base_addr, pf_addr, fill_this_level, prefetch_metadata) is deprecated.
WARNING: Use CACHE::prefetch_line(pf_addr, fill_this_level, prefetch_metadata) instead.
Heartbeat CPU 0 instructions: 10000000 cycles: 3967964 heartbeat IPC: 2.52018 cumulative IPC: 2.52018 (Simulation time: 0 hr 0 min 40 sec) 
Heartbeat CPU 0 instructions: 20000001 cycles: 7993843 heartbeat IPC: 2.48393 cumulative IPC: 2.50193 (Simulation time: 0 hr 1 min 21 sec) 
Heartbeat CPU 0 instructions: 30000002 cycles: 12065176 heartbeat IPC: 2.4562 cumulative IPC: 2.4865 (Simulation time: 0 hr 2 min 2 sec) 
Heartbeat CPU 0 instructions: 40000003 cycles: 16093137 heartbeat IPC: 2.48265 cumulative IPC: 2.48553 (Simulation time: 0 hr 2 min 42 sec) 
Heartbeat CPU 0 instructions: 50000004 cycles: 20121918 heartbeat IPC: 2.48214 cumulative IPC: 2.48485 (Simulation time: 0 hr 3 min 23 sec) 
Heartbeat CPU 0 instructions: 60000001 cycles: 24177173 heartbeat IPC: 2.46594 cumulative IPC: 2.48168 (Simulation time: 0 hr 4 min 4 sec) 
Heartbeat CPU 0 instructions: 70000000 cycles: 28176193 heartbeat IPC: 2.50061 cumulative IPC: 2.48437 (Simulation time: 0 hr 4 min 44 sec) 
Heartbeat CPU 0 instructions: 80000004 cycles: 32175874 heartbeat IPC: 2.5002 cumulative IPC: 2.48634 (Simulation time: 0 hr 5 min 24 sec) 
Heartbeat CPU 0 instructions: 90000002 cycles: 36207860 heartbeat IPC: 2.48017 cumulative IPC: 2.48565 (Simulation time: 0 hr 6 min 5 sec) 
Heartbeat CPU 0 instructions: 100000000 cycles: 40233532 heartbeat IPC: 2.48406 cumulative IPC: 2.48549 (Simulation time: 0 hr 6 min 45 sec) 
Heartbeat CPU 0 instructions: 110000000 cycles: 44279367 heartbeat IPC: 2.47168 cumulative IPC: 2.48423 (Simulation time: 0 hr 7 min 26 sec) 
Heartbeat CPU 0 instructions: 120000003 cycles: 48413730 heartbeat IPC: 2.41875 cumulative IPC: 2.47864 (Simulation time: 0 hr 8 min 8 sec) 
Heartbeat CPU 0 instructions: 130000000 cycles: 52464464 heartbeat IPC: 2.46869 cumulative IPC: 2.47787 (Simulation time: 0 hr 8 min 50 sec) 
Heartbeat CPU 0 instructions: 140000003 cycles: 56556946 heartbeat IPC: 2.44351 cumulative IPC: 2.47538 (Simulation time: 0 hr 9 min 32 sec) 
Heartbeat CPU 0 instructions: 150000003 cycles: 60654694 heartbeat IPC: 2.44036 cumulative IPC: 2.47302 (Simulation time: 0 hr 10 min 14 sec) 
Heartbeat CPU 0 instructions: 160000000 cycles: 64824732 heartbeat IPC: 2.39806 cumulative IPC: 2.46819 (Simulation time: 0 hr 10 min 56 sec) 
Heartbeat CPU 0 instructions: 170000002 cycles: 69020227 heartbeat IPC: 2.38351 cumulative IPC: 2.46305 (Simulation time: 0 hr 11 min 38 sec) 
Heartbeat CPU 0 instructions: 180000002 cycles: 73202339 heartbeat IPC: 2.39114 cumulative IPC: 2.45894 (Simulation time: 0 hr 12 min 20 sec) 
Heartbeat CPU 0 instructions: 190000000 cycles: 77363595 heartbeat IPC: 2.40312 cumulative IPC: 2.45594 (Simulation time: 0 hr 13 min 2 sec) 
Heartbeat CPU 0 instructions: 200000001 cycles: 81583447 heartbeat IPC: 2.36975 cumulative IPC: 2.45148 (Simulation time: 0 hr 13 min 45 sec) 

Warmup complete CPU 0 instructions: 200000001 cycles: 81583447 (Simulation time: 0 hr 13 min 45 sec) 

Heartbeat CPU 0 instructions: 210000001 cycles: 89946029 heartbeat IPC: 1.1958 cumulative IPC: 1.1958 (Simulation time: 0 hr 14 min 23 sec) 
Heartbeat CPU 0 instructions: 220000001 cycles: 98508586 heartbeat IPC: 1.16788 cumulative IPC: 1.18167 (Simulation time: 0 hr 15 min 1 sec) 
Heartbeat CPU 0 instructions: 230000000 cycles: 106485622 heartbeat IPC: 1.2536 cumulative IPC: 1.20471 (Simulation time: 0 hr 15 min 41 sec) 
Heartbeat CPU 0 instructions: 240000002 cycles: 115132292 heartbeat IPC: 1.15651 cumulative IPC: 1.19229 (Simulation time: 0 hr 16 min 19 sec) 
Heartbeat CPU 0 instructions: 250000002 cycles: 123706380 heartbeat IPC: 1.1663 cumulative IPC: 1.187 (Simulation time: 0 hr 16 min 57 sec) 
Heartbeat CPU 0 instructions: 260000004 cycles: 131425068 heartbeat IPC: 1.29556 cumulative IPC: 1.20381 (Simulation time: 0 hr 17 min 37 sec) 
Heartbeat CPU 0 instructions: 270000004 cycles: 140525546 heartbeat IPC: 1.09884 cumulative IPC: 1.18761 (Simulation time: 0 hr 18 min 15 sec) 
Heartbeat CPU 0 instructions: 280000000 cycles: 149474930 heartbeat IPC: 1.11739 cumulative IPC: 1.17835 (Simulation time: 0 hr 18 min 53 sec) 
Heartbeat CPU 0 instructions: 290000001 cycles: 158524212 heartbeat IPC: 1.10506 cumulative IPC: 1.16973 (Simulation time: 0 hr 19 min 32 sec) 
Heartbeat CPU 0 instructions: 300000003 cycles: 166568953 heartbeat IPC: 1.24305 cumulative IPC: 1.17667 (Simulation time: 0 hr 20 min 11 sec) 
Heartbeat CPU 0 instructions: 310000003 cycles: 175438645 heartbeat IPC: 1.12743 cumulative IPC: 1.17202 (Simulation time: 0 hr 20 min 50 sec) 
Heartbeat CPU 0 instructions: 320000003 cycles: 184743672 heartbeat IPC: 1.07469 cumulative IPC: 1.16324 (Simulation time: 0 hr 21 min 30 sec) 
Heartbeat CPU 0 instructions: 330000000 cycles: 194543130 heartbeat IPC: 1.02046 cumulative IPC: 1.15085 (Simulation time: 0 hr 22 min 8 sec) 
Heartbeat CPU 0 instructions: 340000001 cycles: 205080749 heartbeat IPC: 0.948981 cumulative IPC: 1.13363 (Simulation time: 0 hr 22 min 46 sec) 
Heartbeat CPU 0 instructions: 350000003 cycles: 215543664 heartbeat IPC: 0.955757 cumulative IPC: 1.11974 (Simulation time: 0 hr 23 min 24 sec) 
Heartbeat CPU 0 instructions: 360000001 cycles: 225831826 heartbeat IPC: 0.971991 cumulative IPC: 1.1092 (Simulation time: 0 hr 24 min 3 sec) 
Heartbeat CPU 0 instructions: 370000002 cycles: 235446188 heartbeat IPC: 1.04011 cumulative IPC: 1.10488 (Simulation time: 0 hr 24 min 42 sec) 
Heartbeat CPU 0 instructions: 380000003 cycles: 244256776 heartbeat IPC: 1.135 cumulative IPC: 1.10651 (Simulation time: 0 hr 25 min 23 sec) 
Heartbeat CPU 0 instructions: 390000000 cycles: 252612056 heartbeat IPC: 1.19685 cumulative IPC: 1.11093 (Simulation time: 0 hr 26 min 3 sec) 
Heartbeat CPU 0 instructions: 400000002 cycles: 261450291 heartbeat IPC: 1.13145 cumulative IPC: 1.11193 (Simulation time: 0 hr 26 min 42 sec) 
Heartbeat CPU 0 instructions: 410000002 cycles: 269912922 heartbeat IPC: 1.18167 cumulative IPC: 1.11507 (Simulation time: 0 hr 27 min 22 sec) 
Heartbeat CPU 0 instructions: 420000000 cycles: 279107282 heartbeat IPC: 1.08762 cumulative IPC: 1.11379 (Simulation time: 0 hr 28 min 3 sec) 
Heartbeat CPU 0 instructions: 430000003 cycles: 288317701 heartbeat IPC: 1.08573 cumulative IPC: 1.11254 (Simulation time: 0 hr 28 min 43 sec) 
Heartbeat CPU 0 instructions: 440000001 cycles: 296845205 heartbeat IPC: 1.17268 cumulative IPC: 1.11492 (Simulation time: 0 hr 29 min 23 sec) 
Heartbeat CPU 0 instructions: 450000004 cycles: 305065946 heartbeat IPC: 1.21644 cumulative IPC: 1.11866 (Simulation time: 0 hr 30 min 4 sec) 
Heartbeat CPU 0 instructions: 460000002 cycles: 312511188 heartbeat IPC: 1.34314 cumulative IPC: 1.12589 (Simulation time: 0 hr 30 min 44 sec) 
Heartbeat CPU 0 instructions: 470000001 cycles: 320786133 heartbeat IPC: 1.20847 cumulative IPC: 1.12875 (Simulation time: 0 hr 31 min 24 sec) 
Heartbeat CPU 0 instructions: 480000000 cycles: 328652913 heartbeat IPC: 1.27117 cumulative IPC: 1.13328 (Simulation time: 0 hr 32 min 5 sec) 
Heartbeat CPU 0 instructions: 490000004 cycles: 337366199 heartbeat IPC: 1.14767 cumulative IPC: 1.13377 (Simulation time: 0 hr 32 min 45 sec) 
Heartbeat CPU 0 instructions: 500000002 cycles: 346145348 heartbeat IPC: 1.13906 cumulative IPC: 1.13395 (Simulation time: 0 hr 33 min 26 sec) 
Heartbeat CPU 0 instructions: 510000000 cycles: 354137361 heartbeat IPC: 1.25125 cumulative IPC: 1.13739 (Simulation time: 0 hr 34 min 7 sec) 
Heartbeat CPU 0 instructions: 520000000 cycles: 361695708 heartbeat IPC: 1.32304 cumulative IPC: 1.1424 (Simulation time: 0 hr 34 min 49 sec) 
Heartbeat CPU 0 instructions: 530000002 cycles: 369758036 heartbeat IPC: 1.24034 cumulative IPC: 1.14514 (Simulation time: 0 hr 35 min 30 sec) 
Heartbeat CPU 0 instructions: 540000003 cycles: 377409511 heartbeat IPC: 1.30694 cumulative IPC: 1.14932 (Simulation time: 0 hr 36 min 12 sec) 
Heartbeat CPU 0 instructions: 550000001 cycles: 385073503 heartbeat IPC: 1.3048 cumulative IPC: 1.15325 (Simulation time: 0 hr 36 min 54 sec) 
Heartbeat CPU 0 instructions: 560000000 cycles: 393227051 heartbeat IPC: 1.22646 cumulative IPC: 1.15517 (Simulation time: 0 hr 37 min 35 sec) 
Heartbeat CPU 0 instructions: 570000000 cycles: 400999744 heartbeat IPC: 1.28656 cumulative IPC: 1.15836 (Simulation time: 0 hr 38 min 17 sec) 
Heartbeat CPU 0 instructions: 580000000 cycles: 409309615 heartbeat IPC: 1.20339 cumulative IPC: 1.1595 (Simulation time: 0 hr 38 min 58 sec) 
Heartbeat CPU 0 instructions: 590000000 cycles: 417691045 heartbeat IPC: 1.19311 cumulative IPC: 1.16034 (Simulation time: 0 hr 39 min 39 sec) 
Heartbeat CPU 0 instructions: 600000000 cycles: 425571819 heartbeat IPC: 1.26891 cumulative IPC: 1.16283 (Simulation time: 0 hr 40 min 20 sec) 
Heartbeat CPU 0 instructions: 610000001 cycles: 433481389 heartbeat IPC: 1.26429 cumulative IPC: 1.16511 (Simulation time: 0 hr 41 min 1 sec) 
Heartbeat CPU 0 instructions: 620000000 cycles: 442338447 heartbeat IPC: 1.12904 cumulative IPC: 1.16422 (Simulation time: 0 hr 41 min 43 sec) 
Heartbeat CPU 0 instructions: 630000002 cycles: 451250784 heartbeat IPC: 1.12204 cumulative IPC: 1.16321 (Simulation time: 0 hr 42 min 24 sec) 
Heartbeat CPU 0 instructions: 640000000 cycles: 459743519 heartbeat IPC: 1.17748 cumulative IPC: 1.16353 (Simulation time: 0 hr 43 min 5 sec) 
Heartbeat CPU 0 instructions: 650000001 cycles: 467798256 heartbeat IPC: 1.24151 cumulative IPC: 1.16515 (Simulation time: 0 hr 43 min 47 sec) 
Heartbeat CPU 0 instructions: 660000002 cycles: 476376586 heartbeat IPC: 1.16573 cumulative IPC: 1.16517 (Simulation time: 0 hr 44 min 28 sec) 
Heartbeat CPU 0 instructions: 670000000 cycles: 484385141 heartbeat IPC: 1.24866 cumulative IPC: 1.16683 (Simulation time: 0 hr 45 min 9 sec) 
Heartbeat CPU 0 instructions: 680000001 cycles: 492255698 heartbeat IPC: 1.27056 cumulative IPC: 1.16882 (Simulation time: 0 hr 45 min 51 sec) 
Heartbeat CPU 0 instructions: 690000001 cycles: 500860108 heartbeat IPC: 1.16219 cumulative IPC: 1.16868 (Simulation time: 0 hr 46 min 32 sec) 
Heartbeat CPU 0 instructions: 700000002 cycles: 511101779 heartbeat IPC: 0.976403 cumulative IPC: 1.16409 (Simulation time: 0 hr 47 min 13 sec) 
Finished CPU 0 instructions: 500000001 cycles: 429518332 cumulative IPC: 1.16409 (Simulation time: 0 hr 47 min 13 sec) 

ChampSim completed all CPUs

Region of Interest Statistics

CPU 0 cumulative IPC: 1.16409 instructions: 500000001 cycles: 429518332
cpu0_L1I TOTAL     ACCESS:   76789329  HIT:   76789313  MISS:         16
cpu0_L1I LOAD      ACCESS:   76789329  HIT:   76789313  MISS:         16
cpu0_L1I RFO       ACCESS:          0  HIT:          0  MISS:          0
cpu0_L1I PREFETCH  ACCESS:          0  HIT:          0  MISS:          0
cpu0_L1I WRITEBACK ACCESS:          0  HIT:          0  MISS:          0
cpu0_L1I TRANSLATION ACCESS:          0  HIT:          0  MISS:          0
cpu0_L1I PREFETCH  REQUESTED:          0  ISSUED:          0  USEFUL:          0  USELESS:          0
cpu0_L1I AVERAGE MISS LATENCY: 134 cycles
cpu0_DTLB TOTAL     ACCESS:  161419343  HIT:  159394635  MISS:    2024708
cpu0_DTLB LOAD      ACCESS:  138299419  HIT:  136284760  MISS:    2014659
cpu0_DTLB RFO       ACCESS:   23119924  HIT:   23109875  MISS:      10049
cpu0_DTLB PREFETCH  ACCESS:          0  HIT:          0  MISS:          0
cpu0_DTLB WRITEBACK ACCESS:          0  HIT:          0  MISS:          0
cpu0_DTLB TRANSLATION ACCESS:          0  HIT:          0  MISS:          0
cpu0_DTLB PREFETCH  REQUESTED:          0  ISSUED:          0  USEFUL:          0  USELESS:          0
cpu0_DTLB AVERAGE MISS LATENCY: 10.7783 cycles
cpu0_ITLB TOTAL     ACCESS:   49813487  HIT:   49813484  MISS:          3
cpu0_ITLB LOAD      ACCESS:   49813487  HIT:   49813484  MISS:          3
cpu0_ITLB RFO       ACCESS:          0  HIT:          0  MISS:          0
cpu0_ITLB PREFETCH  ACCESS:          0  HIT:          0  MISS:          0
cpu0_ITLB WRITEBACK ACCESS:          0  HIT:          0  MISS:          0
cpu0_ITLB TRANSLATION ACCESS:          0  HIT:          0  MISS:          0
cpu0_ITLB PREFETCH  REQUESTED:          0  ISSUED:          0  USEFUL:          0  USELESS:          0
cpu0_ITLB AVERAGE MISS LATENCY: 281.667 cycles
cpu0_STLB TOTAL     ACCESS:    2024711  HIT:    2007470  MISS:      17241
cpu0_STLB LOAD      ACCESS:    2014662  HIT:    2006815  MISS:       7847
cpu0_STLB RFO       ACCESS:      10049  HIT:        655  MISS:       9394
cpu0_STLB PREFETCH  ACCESS:          0  HIT:          0  MISS:          0
cpu0_STLB WRITEBACK ACCESS:          0  HIT:          0  MISS:          0
cpu0_STLB TRANSLATION ACCESS:          0  HIT:          0  MISS:          0
cpu0_STLB PREFETCH  REQUESTED:          0  ISSUED:          0  USEFUL:          0  USELESS:          0
cpu0_STLB AVERAGE MISS LATENCY: 208.748 cycles
cpu0_L1D TOTAL     ACCESS:  198680038  HIT:  169678757  MISS:   29001281
cpu0_L1D LOAD      ACCESS:  173632566  HIT:  145229726  MISS:   28402840
cpu0_L1D RFO       ACCESS:   25030324  HIT:   24433282  MISS:     597042
cpu0_L1D PREFETCH  ACCESS:          0  HIT:          0  MISS:          0
cpu0_L1D WRITEBACK ACCESS:          0  HIT:          0  MISS:          0
cpu0_L1D TRANSLATION ACCESS:      17148  HIT:      15749  MISS:       1399
cpu0_L1D PREFETCH  REQUESTED:          0  ISSUED:          0  USEFUL:          0  USELESS:          0
cpu0_L1D AVERAGE MISS LATENCY: 18.7902 cycles
cpu0_L2C TOTAL     ACCESS:   29913321  HIT:   28891102  MISS:    1022219
cpu0_L2C LOAD      ACCESS:   28402856  HIT:   27977097  MISS:     425759
cpu0_L2C RFO       ACCESS:     597042  HIT:        593  MISS:     596449
cpu0_L2C PREFETCH  ACCESS:          0  HIT:          0  MISS:          0
cpu0_L2C WRITEBACK ACCESS:     912024  HIT:     912020  MISS:          4
cpu0_L2C TRANSLATION ACCESS:       1399  HIT:       1392  MISS:          7
cpu0_L2C PREFETCH  REQUESTED:          0  ISSUED:          0  USEFUL:          0  USELESS:          0
cpu0_L2C AVERAGE MISS LATENCY: 218.532 cycles
LLC TOTAL     ACCESS:    1944481  HIT:     271467  MISS:    1673014
LLC LOAD      ACCESS:     425759  HIT:     261847  MISS:     163912
LLC RFO       ACCESS:     596449  HIT:       5960  MISS:     590489
LLC PREFETCH  ACCESS:     315472  HIT:       3660  MISS:     311812
LLC WRITEBACK ACCESS:     606794  HIT:          0  MISS:     606794
LLC TRANSLATION ACCESS:          7  HIT:          0  MISS:          7
LLC PREFETCH  REQUESTED:     425759  ISSUED:     425759  USEFUL:     372247  USELESS:      44754
LLC AVERAGE MISS LATENCY: 164.643 cycles

DRAM Statistics
 CHANNEL 0
 RQ ROW_BUFFER_HIT:      40270  ROW_BUFFER_MISS:    1025950
 DBUS AVG_CONGESTED_CYCLE:    3.96896
 WQ ROW_BUFFER_HIT:      20729  ROW_BUFFER_MISS:     574574  FULL:          0


CPU 0 Branch Prediction Accuracy: 98.4831% MPKI: 2.79913 Average ROB Occupancy at Mispredict: 47.9928
Branch type MPKI
BRANCH_DIRECT_JUMP: 6e-06
BRANCH_INDIRECT: 0
BRANCH_CONDITIONAL: 2.79911
BRANCH_DIRECT_CALL: 6e-06
BRANCH_INDIRECT_CALL: 0
BRANCH_RETURN: 6e-06

