/home/caslab/workspace/sim/ChampSim/bin/champsim --warmup_instructions 200000000 --simulation_instructions 500000000/ /home/caslab/workspace/sim/traces/speccpu_by_champsim605.mcf_s-1644B.champsimtrace.xz
start simulation for 605.mcf_s-1644B.champsimtrace.xz

*** ChampSim Multicore Out-of-Order Simulator ***

Warmup Instructions: 200000000
Simulation Instructions: 500000000
Number of CPUs: 1
Off-chip DRAM Size: 4 GiB Channels: 1 Width: 64-bit Data Rate: 3200 MT/s

VirtualMemory physical capacity: 8588881920 num_ppages: 2096895
VirtualMemory page size: 4096 log2_page_size: 12

CPU 0 runs /home/caslab/workspace/sim/traces/speccpu_by_champsim/605.mcf_s-1644B.champsimtrace.xz
CPU 0 Bimodal branch predictor
Basic BTB sets: 1024 ways: 8 indirect buffer size: 4096 RAS size: 64
LLC next line prefetcher
WARNING: The extended signature CACHE::prefetch_line(ip, base_addr, pf_addr, fill_this_level, prefetch_metadata) is deprecated.
WARNING: Use CACHE::prefetch_line(pf_addr, fill_this_level, prefetch_metadata) instead.
Heartbeat CPU 0 instructions: 10000004 cycles: 3499471 heartbeat IPC: 2.85758 cumulative IPC: 2.85758 (Simulation time: 0 hr 0 min 44 sec) 
Heartbeat CPU 0 instructions: 20000002 cycles: 6997679 heartbeat IPC: 2.85861 cumulative IPC: 2.85809 (Simulation time: 0 hr 1 min 28 sec) 
Heartbeat CPU 0 instructions: 30000000 cycles: 10496358 heartbeat IPC: 2.85822 cumulative IPC: 2.85813 (Simulation time: 0 hr 2 min 11 sec) 
Heartbeat CPU 0 instructions: 40000002 cycles: 13995032 heartbeat IPC: 2.85823 cumulative IPC: 2.85816 (Simulation time: 0 hr 2 min 54 sec) 
Heartbeat CPU 0 instructions: 50000000 cycles: 17493506 heartbeat IPC: 2.85839 cumulative IPC: 2.8582 (Simulation time: 0 hr 3 min 38 sec) 
Heartbeat CPU 0 instructions: 60000004 cycles: 20990700 heartbeat IPC: 2.85944 cumulative IPC: 2.85841 (Simulation time: 0 hr 4 min 23 sec) 
Heartbeat CPU 0 instructions: 70000004 cycles: 24489910 heartbeat IPC: 2.85779 cumulative IPC: 2.85832 (Simulation time: 0 hr 5 min 6 sec) 
Heartbeat CPU 0 instructions: 80000001 cycles: 27990058 heartbeat IPC: 2.85702 cumulative IPC: 2.85816 (Simulation time: 0 hr 5 min 49 sec) 
Heartbeat CPU 0 instructions: 90000000 cycles: 31489146 heartbeat IPC: 2.85789 cumulative IPC: 2.85813 (Simulation time: 0 hr 6 min 33 sec) 
Heartbeat CPU 0 instructions: 100000001 cycles: 34986676 heartbeat IPC: 2.85916 cumulative IPC: 2.85823 (Simulation time: 0 hr 7 min 16 sec) 
Heartbeat CPU 0 instructions: 110000000 cycles: 38485266 heartbeat IPC: 2.85829 cumulative IPC: 2.85824 (Simulation time: 0 hr 8 min 0 sec) 
Heartbeat CPU 0 instructions: 120000003 cycles: 41985162 heartbeat IPC: 2.85723 cumulative IPC: 2.85815 (Simulation time: 0 hr 8 min 43 sec) 
Heartbeat CPU 0 instructions: 130000000 cycles: 45486394 heartbeat IPC: 2.85614 cumulative IPC: 2.858 (Simulation time: 0 hr 9 min 26 sec) 
Heartbeat CPU 0 instructions: 140000000 cycles: 48981067 heartbeat IPC: 2.8615 cumulative IPC: 2.85825 (Simulation time: 0 hr 10 min 9 sec) 
Heartbeat CPU 0 instructions: 150000002 cycles: 52479424 heartbeat IPC: 2.85849 cumulative IPC: 2.85826 (Simulation time: 0 hr 10 min 52 sec) 
Heartbeat CPU 0 instructions: 160000003 cycles: 55981151 heartbeat IPC: 2.85573 cumulative IPC: 2.8581 (Simulation time: 0 hr 11 min 35 sec) 
Heartbeat CPU 0 instructions: 170000004 cycles: 59478851 heartbeat IPC: 2.85902 cumulative IPC: 2.85816 (Simulation time: 0 hr 12 min 19 sec) 
Heartbeat CPU 0 instructions: 180000004 cycles: 62976264 heartbeat IPC: 2.85926 cumulative IPC: 2.85822 (Simulation time: 0 hr 13 min 3 sec) 
Heartbeat CPU 0 instructions: 190000000 cycles: 66474231 heartbeat IPC: 2.8588 cumulative IPC: 2.85825 (Simulation time: 0 hr 13 min 47 sec) 
Heartbeat CPU 0 instructions: 200000004 cycles: 69975959 heartbeat IPC: 2.85573 cumulative IPC: 2.85812 (Simulation time: 0 hr 14 min 30 sec) 

Warmup complete CPU 0 instructions: 200000004 cycles: 69975959 (Simulation time: 0 hr 14 min 30 sec) 

Heartbeat CPU 0 instructions: 210000000 cycles: 132439156 heartbeat IPC: 0.160094 cumulative IPC: 0.160094 (Simulation time: 0 hr 16 min 26 sec) 
Heartbeat CPU 0 instructions: 220000000 cycles: 195843815 heartbeat IPC: 0.157717 cumulative IPC: 0.158897 (Simulation time: 0 hr 18 min 21 sec) 
Heartbeat CPU 0 instructions: 230000003 cycles: 258404418 heartbeat IPC: 0.159845 cumulative IPC: 0.159212 (Simulation time: 0 hr 20 min 18 sec) 
Heartbeat CPU 0 instructions: 240000002 cycles: 321557821 heartbeat IPC: 0.158345 cumulative IPC: 0.158994 (Simulation time: 0 hr 22 min 14 sec) 
Heartbeat CPU 0 instructions: 250000004 cycles: 385108221 heartbeat IPC: 0.157355 cumulative IPC: 0.158664 (Simulation time: 0 hr 24 min 7 sec) 
Heartbeat CPU 0 instructions: 260000000 cycles: 448570498 heartbeat IPC: 0.157574 cumulative IPC: 0.158481 (Simulation time: 0 hr 26 min 3 sec) 
Heartbeat CPU 0 instructions: 270000002 cycles: 512381380 heartbeat IPC: 0.156713 cumulative IPC: 0.158226 (Simulation time: 0 hr 27 min 56 sec) 
Heartbeat CPU 0 instructions: 280000003 cycles: 575598881 heartbeat IPC: 0.158184 cumulative IPC: 0.158221 (Simulation time: 0 hr 29 min 52 sec) 
Heartbeat CPU 0 instructions: 290000000 cycles: 638234897 heartbeat IPC: 0.159653 cumulative IPC: 0.158378 (Simulation time: 0 hr 31 min 51 sec) 
Heartbeat CPU 0 instructions: 300000002 cycles: 701694855 heartbeat IPC: 0.15758 cumulative IPC: 0.158298 (Simulation time: 0 hr 33 min 49 sec) 
Heartbeat CPU 0 instructions: 310000000 cycles: 765966540 heartbeat IPC: 0.155589 cumulative IPC: 0.158048 (Simulation time: 0 hr 35 min 41 sec) 
Heartbeat CPU 0 instructions: 320000000 cycles: 829070849 heartbeat IPC: 0.158468 cumulative IPC: 0.158083 (Simulation time: 0 hr 37 min 39 sec) 
Heartbeat CPU 0 instructions: 330000000 cycles: 892710996 heartbeat IPC: 0.157134 cumulative IPC: 0.15801 (Simulation time: 0 hr 39 min 34 sec) 
Heartbeat CPU 0 instructions: 340000001 cycles: 956652342 heartbeat IPC: 0.156393 cumulative IPC: 0.157893 (Simulation time: 0 hr 41 min 29 sec) 
Heartbeat CPU 0 instructions: 350000002 cycles: 1020349959 heartbeat IPC: 0.156992 cumulative IPC: 0.157833 (Simulation time: 0 hr 43 min 24 sec) 
Heartbeat CPU 0 instructions: 360000001 cycles: 1083596257 heartbeat IPC: 0.158112 cumulative IPC: 0.15785 (Simulation time: 0 hr 45 min 18 sec) 
Heartbeat CPU 0 instructions: 370000002 cycles: 1147453239 heartbeat IPC: 0.1566 cumulative IPC: 0.157776 (Simulation time: 0 hr 47 min 11 sec) 
Heartbeat CPU 0 instructions: 380000000 cycles: 1211964007 heartbeat IPC: 0.155013 cumulative IPC: 0.15762 (Simulation time: 0 hr 49 min 5 sec) 
Heartbeat CPU 0 instructions: 390000003 cycles: 1277252631 heartbeat IPC: 0.153166 cumulative IPC: 0.157379 (Simulation time: 0 hr 50 min 57 sec) 
Heartbeat CPU 0 instructions: 400000000 cycles: 1341080332 heartbeat IPC: 0.156672 cumulative IPC: 0.157343 (Simulation time: 0 hr 52 min 50 sec) 
Heartbeat CPU 0 instructions: 410000000 cycles: 1404722253 heartbeat IPC: 0.157129 cumulative IPC: 0.157333 (Simulation time: 0 hr 54 min 41 sec) 
Heartbeat CPU 0 instructions: 420000000 cycles: 1468156745 heartbeat IPC: 0.157643 cumulative IPC: 0.157347 (Simulation time: 0 hr 56 min 35 sec) 
Heartbeat CPU 0 instructions: 430000002 cycles: 1531260941 heartbeat IPC: 0.158468 cumulative IPC: 0.157396 (Simulation time: 0 hr 58 min 32 sec) 
Heartbeat CPU 0 instructions: 440000000 cycles: 1594609581 heartbeat IPC: 0.157857 cumulative IPC: 0.157415 (Simulation time: 1 hr 0 min 29 sec) 
Heartbeat CPU 0 instructions: 450000002 cycles: 1657659598 heartbeat IPC: 0.158604 cumulative IPC: 0.157462 (Simulation time: 1 hr 2 min 31 sec) 
Heartbeat CPU 0 instructions: 460000003 cycles: 1710851660 heartbeat IPC: 0.187998 cumulative IPC: 0.158452 (Simulation time: 1 hr 5 min 13 sec) 
Heartbeat CPU 0 instructions: 470000003 cycles: 1727630812 heartbeat IPC: 0.595978 cumulative IPC: 0.162881 (Simulation time: 1 hr 6 min 11 sec) 
Heartbeat CPU 0 instructions: 480000001 cycles: 1742677092 heartbeat IPC: 0.664616 cumulative IPC: 0.167394 (Simulation time: 1 hr 7 min 4 sec) 
Heartbeat CPU 0 instructions: 490000002 cycles: 1753404259 heartbeat IPC: 0.932213 cumulative IPC: 0.172268 (Simulation time: 1 hr 7 min 44 sec) 
Heartbeat CPU 0 instructions: 500000004 cycles: 1762788036 heartbeat IPC: 1.06567 cumulative IPC: 0.17722 (Simulation time: 1 hr 8 min 20 sec) 
Heartbeat CPU 0 instructions: 510000001 cycles: 1773576738 heartbeat IPC: 0.926895 cumulative IPC: 0.181968 (Simulation time: 1 hr 9 min 1 sec) 
Heartbeat CPU 0 instructions: 520000001 cycles: 1783618822 heartbeat IPC: 0.995809 cumulative IPC: 0.186737 (Simulation time: 1 hr 9 min 39 sec) 
Heartbeat CPU 0 instructions: 530000004 cycles: 1792971794 heartbeat IPC: 1.06918 cumulative IPC: 0.191527 (Simulation time: 1 hr 10 min 14 sec) 
Heartbeat CPU 0 instructions: 540000002 cycles: 1802287244 heartbeat IPC: 1.07349 cumulative IPC: 0.19627 (Simulation time: 1 hr 10 min 48 sec) 
Heartbeat CPU 0 instructions: 550000000 cycles: 1811919551 heartbeat IPC: 1.03817 cumulative IPC: 0.200925 (Simulation time: 1 hr 11 min 24 sec) 
Heartbeat CPU 0 instructions: 560000000 cycles: 1820967547 heartbeat IPC: 1.10522 cumulative IPC: 0.205598 (Simulation time: 1 hr 11 min 57 sec) 
Heartbeat CPU 0 instructions: 570000004 cycles: 1830039676 heartbeat IPC: 1.10228 cumulative IPC: 0.21022 (Simulation time: 1 hr 12 min 31 sec) 
Heartbeat CPU 0 instructions: 580000003 cycles: 1838408966 heartbeat IPC: 1.19484 cumulative IPC: 0.214879 (Simulation time: 1 hr 13 min 4 sec) 
Heartbeat CPU 0 instructions: 590000003 cycles: 1847450001 heartbeat IPC: 1.10607 cumulative IPC: 0.219412 (Simulation time: 1 hr 13 min 36 sec) 
Heartbeat CPU 0 instructions: 600000000 cycles: 1855677454 heartbeat IPC: 1.21544 cumulative IPC: 0.224002 (Simulation time: 1 hr 14 min 8 sec) 
Heartbeat CPU 0 instructions: 610000001 cycles: 1863575556 heartbeat IPC: 1.26613 cumulative IPC: 0.228591 (Simulation time: 1 hr 14 min 39 sec) 
Heartbeat CPU 0 instructions: 620000000 cycles: 1871486194 heartbeat IPC: 1.26412 cumulative IPC: 0.233138 (Simulation time: 1 hr 15 min 9 sec) 
Heartbeat CPU 0 instructions: 630000004 cycles: 1880453483 heartbeat IPC: 1.11516 cumulative IPC: 0.237506 (Simulation time: 1 hr 15 min 41 sec) 
Heartbeat CPU 0 instructions: 640000000 cycles: 1888665165 heartbeat IPC: 1.21778 cumulative IPC: 0.241932 (Simulation time: 1 hr 16 min 12 sec) 
Heartbeat CPU 0 instructions: 650000001 cycles: 1896903175 heartbeat IPC: 1.21389 cumulative IPC: 0.246315 (Simulation time: 1 hr 16 min 43 sec) 
Heartbeat CPU 0 instructions: 660000000 cycles: 1905974611 heartbeat IPC: 1.10236 cumulative IPC: 0.250545 (Simulation time: 1 hr 17 min 15 sec) 
Heartbeat CPU 0 instructions: 670000003 cycles: 1914396094 heartbeat IPC: 1.18744 cumulative IPC: 0.254823 (Simulation time: 1 hr 17 min 45 sec) 
Heartbeat CPU 0 instructions: 680000002 cycles: 1922817264 heartbeat IPC: 1.18748 cumulative IPC: 0.259062 (Simulation time: 1 hr 18 min 16 sec) 
Heartbeat CPU 0 instructions: 690000000 cycles: 1930825831 heartbeat IPC: 1.24866 cumulative IPC: 0.263321 (Simulation time: 1 hr 18 min 46 sec) 
Heartbeat CPU 0 instructions: 700000003 cycles: 1938911183 heartbeat IPC: 1.2368 cumulative IPC: 0.267532 (Simulation time: 1 hr 19 min 16 sec) 
Finished CPU 0 instructions: 500000004 cycles: 1868935233 cumulative IPC: 0.267532 (Simulation time: 1 hr 19 min 16 sec) 

ChampSim completed all CPUs

Region of Interest Statistics

CPU 0 cumulative IPC: 0.267532 instructions: 500000004 cycles: 1868935233
cpu0_L1I TOTAL     ACCESS:   23446948  HIT:   23446722  MISS:        226
cpu0_L1I LOAD      ACCESS:   23446948  HIT:   23446722  MISS:        226
cpu0_L1I RFO       ACCESS:          0  HIT:          0  MISS:          0
cpu0_L1I PREFETCH  ACCESS:          0  HIT:          0  MISS:          0
cpu0_L1I WRITEBACK ACCESS:          0  HIT:          0  MISS:          0
cpu0_L1I TRANSLATION ACCESS:          0  HIT:          0  MISS:          0
cpu0_L1I PREFETCH  REQUESTED:          0  ISSUED:          0  USEFUL:          0  USELESS:          0
cpu0_L1I AVERAGE MISS LATENCY: 179.19 cycles
cpu0_DTLB TOTAL     ACCESS:  217028156  HIT:  209141146  MISS:    7887010
cpu0_DTLB LOAD      ACCESS:  125938874  HIT:  123789132  MISS:    2149742
cpu0_DTLB RFO       ACCESS:   91089282  HIT:   85352014  MISS:    5737268
cpu0_DTLB PREFETCH  ACCESS:          0  HIT:          0  MISS:          0
cpu0_DTLB WRITEBACK ACCESS:          0  HIT:          0  MISS:          0
cpu0_DTLB TRANSLATION ACCESS:          0  HIT:          0  MISS:          0
cpu0_DTLB PREFETCH  REQUESTED:          0  ISSUED:          0  USEFUL:          0  USELESS:          0
cpu0_DTLB AVERAGE MISS LATENCY: 16.9947 cycles
cpu0_ITLB TOTAL     ACCESS:   52981700  HIT:   52981681  MISS:         19
cpu0_ITLB LOAD      ACCESS:   52981700  HIT:   52981681  MISS:         19
cpu0_ITLB RFO       ACCESS:          0  HIT:          0  MISS:          0
cpu0_ITLB PREFETCH  ACCESS:          0  HIT:          0  MISS:          0
cpu0_ITLB WRITEBACK ACCESS:          0  HIT:          0  MISS:          0
cpu0_ITLB TRANSLATION ACCESS:          0  HIT:          0  MISS:          0
cpu0_ITLB PREFETCH  REQUESTED:          0  ISSUED:          0  USEFUL:          0  USELESS:          0
cpu0_ITLB AVERAGE MISS LATENCY: 241.947 cycles
cpu0_STLB TOTAL     ACCESS:    7887029  HIT:    2650462  MISS:    5236567
cpu0_STLB LOAD      ACCESS:    2149761  HIT:    1996126  MISS:     153635
cpu0_STLB RFO       ACCESS:    5737268  HIT:     654336  MISS:    5082932
cpu0_STLB PREFETCH  ACCESS:          0  HIT:          0  MISS:          0
cpu0_STLB WRITEBACK ACCESS:          0  HIT:          0  MISS:          0
cpu0_STLB TRANSLATION ACCESS:          0  HIT:          0  MISS:          0
cpu0_STLB PREFETCH  REQUESTED:          0  ISSUED:          0  USEFUL:          0  USELESS:          0
cpu0_STLB AVERAGE MISS LATENCY: 12.0314 cycles
cpu0_L1D TOTAL     ACCESS:  223945609  HIT:  204533625  MISS:   19411984
cpu0_L1D LOAD      ACCESS:  141896078  HIT:  133437382  MISS:    8458696
cpu0_L1D RFO       ACCESS:   76813340  HIT:   65860401  MISS:   10952939
cpu0_L1D PREFETCH  ACCESS:          0  HIT:          0  MISS:          0
cpu0_L1D WRITEBACK ACCESS:          0  HIT:          0  MISS:          0
cpu0_L1D TRANSLATION ACCESS:    5236191  HIT:    5235842  MISS:        349
cpu0_L1D PREFETCH  REQUESTED:          0  ISSUED:          0  USEFUL:          0  USELESS:          0
cpu0_L1D AVERAGE MISS LATENCY: 662.64 cycles
cpu0_L2C TOTAL     ACCESS:   37079530  HIT:   20015979  MISS:   17063551
cpu0_L2C LOAD      ACCESS:    8458902  HIT:     875087  MISS:    7583815
cpu0_L2C RFO       ACCESS:   10952939  HIT:    1482272  MISS:    9470667
cpu0_L2C PREFETCH  ACCESS:          0  HIT:          0  MISS:          0
cpu0_L2C WRITEBACK ACCESS:   17667340  HIT:   17658436  MISS:       8904
cpu0_L2C TRANSLATION ACCESS:        349  HIT:        184  MISS:        165
cpu0_L2C PREFETCH  REQUESTED:          0  ISSUED:          0  USEFUL:          0  USELESS:          0
cpu0_L2C AVERAGE MISS LATENCY: 741.291 cycles
LLC TOTAL     ACCESS:   34996948  HIT:    1129237  MISS:   33867711
LLC LOAD      ACCESS:    7583815  HIT:    1074568  MISS:    6509247
LLC RFO       ACCESS:    9470667  HIT:      21542  MISS:    9449125
LLC PREFETCH  ACCESS:    1389262  HIT:      32824  MISS:    1356438
LLC WRITEBACK ACCESS:   16553039  HIT:        303  MISS:   16552736
LLC TRANSLATION ACCESS:        165  HIT:          0  MISS:        165
LLC PREFETCH  REQUESTED:    7583815  ISSUED:    7583815  USEFUL:    3636704  USELESS:     282905
LLC AVERAGE MISS LATENCY: 346.737 cycles

DRAM Statistics
 CHANNEL 0
 RQ ROW_BUFFER_HIT:     717732  ROW_BUFFER_MISS:   16597180
 DBUS AVG_CONGESTED_CYCLE:    3.99623
 WQ ROW_BUFFER_HIT:      13538  ROW_BUFFER_MISS:   16550442  FULL:          0


CPU 0 Branch Prediction Accuracy: 95.7833% MPKI: 7.98499 Average ROB Occupancy at Mispredict: 60.9472
Branch type MPKI
BRANCH_DIRECT_JUMP: 0.0001
BRANCH_INDIRECT: 4e-06
BRANCH_CONDITIONAL: 7.98371
BRANCH_DIRECT_CALL: 8.4e-05
BRANCH_INDIRECT_CALL: 0.001016
BRANCH_RETURN: 7.8e-05

