/home/caslab/workspace/sim/ChampSim/bin/champsim --warmup_instructions 200000000 --simulation_instructions 500000000/ /home/caslab/workspace/sim/traces/speccpu_by_champsim605.mcf_s-665B.champsimtrace.xz
start simulation for 605.mcf_s-665B.champsimtrace.xz

*** ChampSim Multicore Out-of-Order Simulator ***

Warmup Instructions: 200000000
Simulation Instructions: 500000000
Number of CPUs: 1
Off-chip DRAM Size: 4 GiB Channels: 1 Width: 64-bit Data Rate: 3200 MT/s

VirtualMemory physical capacity: 8588881920 num_ppages: 2096895
VirtualMemory page size: 4096 log2_page_size: 12

CPU 0 runs /home/caslab/workspace/sim/traces/speccpu_by_champsim/605.mcf_s-665B.champsimtrace.xz
CPU 0 Bimodal branch predictor
Basic BTB sets: 1024 ways: 8 indirect buffer size: 4096 RAS size: 64
LLC next line prefetcher
WARNING: The extended signature CACHE::prefetch_line(ip, base_addr, pf_addr, fill_this_level, prefetch_metadata) is deprecated.
WARNING: Use CACHE::prefetch_line(pf_addr, fill_this_level, prefetch_metadata) instead.
Heartbeat CPU 0 instructions: 10000003 cycles: 2879774 heartbeat IPC: 3.4725 cumulative IPC: 3.4725 (Simulation time: 0 hr 0 min 26 sec) 
Heartbeat CPU 0 instructions: 20000004 cycles: 5769702 heartbeat IPC: 3.46029 cumulative IPC: 3.46638 (Simulation time: 0 hr 0 min 52 sec) 
Heartbeat CPU 0 instructions: 30000000 cycles: 8652704 heartbeat IPC: 3.46861 cumulative IPC: 3.46712 (Simulation time: 0 hr 1 min 18 sec) 
Heartbeat CPU 0 instructions: 40000004 cycles: 11534546 heartbeat IPC: 3.47 cumulative IPC: 3.46784 (Simulation time: 0 hr 1 min 45 sec) 
Heartbeat CPU 0 instructions: 50000002 cycles: 14406128 heartbeat IPC: 3.4824 cumulative IPC: 3.47075 (Simulation time: 0 hr 2 min 11 sec) 
Heartbeat CPU 0 instructions: 60000000 cycles: 17287545 heartbeat IPC: 3.47051 cumulative IPC: 3.47071 (Simulation time: 0 hr 2 min 37 sec) 
Heartbeat CPU 0 instructions: 70000003 cycles: 20163849 heartbeat IPC: 3.47669 cumulative IPC: 3.47156 (Simulation time: 0 hr 3 min 3 sec) 
Heartbeat CPU 0 instructions: 80000000 cycles: 23047234 heartbeat IPC: 3.46814 cumulative IPC: 3.47113 (Simulation time: 0 hr 3 min 29 sec) 
Heartbeat CPU 0 instructions: 90000004 cycles: 25927243 heartbeat IPC: 3.47221 cumulative IPC: 3.47125 (Simulation time: 0 hr 3 min 55 sec) 
Heartbeat CPU 0 instructions: 100000003 cycles: 28790372 heartbeat IPC: 3.49268 cumulative IPC: 3.47338 (Simulation time: 0 hr 4 min 22 sec) 
Heartbeat CPU 0 instructions: 110000000 cycles: 31661248 heartbeat IPC: 3.48326 cumulative IPC: 3.47428 (Simulation time: 0 hr 4 min 49 sec) 
Heartbeat CPU 0 instructions: 120000004 cycles: 34526035 heartbeat IPC: 3.49066 cumulative IPC: 3.47564 (Simulation time: 0 hr 5 min 16 sec) 
Heartbeat CPU 0 instructions: 130000003 cycles: 37389531 heartbeat IPC: 3.49223 cumulative IPC: 3.47691 (Simulation time: 0 hr 5 min 42 sec) 
Heartbeat CPU 0 instructions: 140000000 cycles: 40253017 heartbeat IPC: 3.49225 cumulative IPC: 3.478 (Simulation time: 0 hr 6 min 8 sec) 
Heartbeat CPU 0 instructions: 150000004 cycles: 43114769 heartbeat IPC: 3.49436 cumulative IPC: 3.47909 (Simulation time: 0 hr 6 min 34 sec) 
Heartbeat CPU 0 instructions: 160000001 cycles: 45969679 heartbeat IPC: 3.50274 cumulative IPC: 3.48056 (Simulation time: 0 hr 7 min 0 sec) 
Heartbeat CPU 0 instructions: 170000001 cycles: 48833131 heartbeat IPC: 3.49229 cumulative IPC: 3.48124 (Simulation time: 0 hr 7 min 26 sec) 
Heartbeat CPU 0 instructions: 180000001 cycles: 51683841 heartbeat IPC: 3.5079 cumulative IPC: 3.48271 (Simulation time: 0 hr 7 min 52 sec) 
Heartbeat CPU 0 instructions: 190000003 cycles: 54549182 heartbeat IPC: 3.48999 cumulative IPC: 3.4831 (Simulation time: 0 hr 8 min 18 sec) 
Heartbeat CPU 0 instructions: 200000000 cycles: 57418437 heartbeat IPC: 3.48522 cumulative IPC: 3.4832 (Simulation time: 0 hr 8 min 45 sec) 

Warmup complete CPU 0 instructions: 200000004 cycles: 57418438 (Simulation time: 0 hr 8 min 45 sec) 

Heartbeat CPU 0 instructions: 210000001 cycles: 72171058 heartbeat IPC: 0.677846 cumulative IPC: 0.677845 (Simulation time: 0 hr 9 min 9 sec) 
Heartbeat CPU 0 instructions: 220000000 cycles: 86793775 heartbeat IPC: 0.683867 cumulative IPC: 0.680843 (Simulation time: 0 hr 9 min 34 sec) 
Heartbeat CPU 0 instructions: 230000000 cycles: 101897005 heartbeat IPC: 0.66211 cumulative IPC: 0.674482 (Simulation time: 0 hr 9 min 59 sec) 
Heartbeat CPU 0 instructions: 240000003 cycles: 116518607 heartbeat IPC: 0.68392 cumulative IPC: 0.676817 (Simulation time: 0 hr 10 min 23 sec) 
Heartbeat CPU 0 instructions: 250000001 cycles: 131212402 heartbeat IPC: 0.680559 cumulative IPC: 0.677562 (Simulation time: 0 hr 10 min 47 sec) 
Heartbeat CPU 0 instructions: 260000004 cycles: 145954881 heartbeat IPC: 0.678312 cumulative IPC: 0.677687 (Simulation time: 0 hr 11 min 12 sec) 
Heartbeat CPU 0 instructions: 270000001 cycles: 160661537 heartbeat IPC: 0.679964 cumulative IPC: 0.678011 (Simulation time: 0 hr 11 min 36 sec) 
Heartbeat CPU 0 instructions: 280000001 cycles: 175426498 heartbeat IPC: 0.677279 cumulative IPC: 0.67792 (Simulation time: 0 hr 12 min 1 sec) 
Heartbeat CPU 0 instructions: 290000000 cycles: 190055131 heartbeat IPC: 0.683591 cumulative IPC: 0.678545 (Simulation time: 0 hr 12 min 25 sec) 
Heartbeat CPU 0 instructions: 300000000 cycles: 204933500 heartbeat IPC: 0.672117 cumulative IPC: 0.677897 (Simulation time: 0 hr 12 min 51 sec) 
Heartbeat CPU 0 instructions: 310000000 cycles: 219112380 heartbeat IPC: 0.705274 cumulative IPC: 0.680298 (Simulation time: 0 hr 13 min 15 sec) 
Heartbeat CPU 0 instructions: 320000003 cycles: 233655988 heartbeat IPC: 0.687587 cumulative IPC: 0.680899 (Simulation time: 0 hr 13 min 41 sec) 
Heartbeat CPU 0 instructions: 330000002 cycles: 247992482 heartbeat IPC: 0.697521 cumulative IPC: 0.68215 (Simulation time: 0 hr 14 min 7 sec) 
Heartbeat CPU 0 instructions: 340000000 cycles: 262256850 heartbeat IPC: 0.701047 cumulative IPC: 0.683466 (Simulation time: 0 hr 14 min 32 sec) 
Heartbeat CPU 0 instructions: 350000003 cycles: 276565843 heartbeat IPC: 0.698861 cumulative IPC: 0.684471 (Simulation time: 0 hr 14 min 57 sec) 
Heartbeat CPU 0 instructions: 360000000 cycles: 290837172 heartbeat IPC: 0.700705 cumulative IPC: 0.685463 (Simulation time: 0 hr 15 min 22 sec) 
Heartbeat CPU 0 instructions: 370000001 cycles: 305161786 heartbeat IPC: 0.698099 cumulative IPC: 0.686194 (Simulation time: 0 hr 15 min 48 sec) 
Heartbeat CPU 0 instructions: 380000001 cycles: 319556454 heartbeat IPC: 0.694702 cumulative IPC: 0.686661 (Simulation time: 0 hr 16 min 13 sec) 
Heartbeat CPU 0 instructions: 390000000 cycles: 333893661 heartbeat IPC: 0.697486 cumulative IPC: 0.687222 (Simulation time: 0 hr 16 min 38 sec) 
Heartbeat CPU 0 instructions: 400000000 cycles: 348208083 heartbeat IPC: 0.698596 cumulative IPC: 0.687782 (Simulation time: 0 hr 17 min 3 sec) 
Heartbeat CPU 0 instructions: 410000002 cycles: 362572800 heartbeat IPC: 0.69615 cumulative IPC: 0.688176 (Simulation time: 0 hr 17 min 28 sec) 
Heartbeat CPU 0 instructions: 420000001 cycles: 376914008 heartbeat IPC: 0.697291 cumulative IPC: 0.688585 (Simulation time: 0 hr 17 min 52 sec) 
Heartbeat CPU 0 instructions: 430000000 cycles: 391339365 heartbeat IPC: 0.693224 cumulative IPC: 0.688786 (Simulation time: 0 hr 18 min 17 sec) 
Heartbeat CPU 0 instructions: 440000000 cycles: 405754564 heartbeat IPC: 0.693712 cumulative IPC: 0.68899 (Simulation time: 0 hr 18 min 41 sec) 
Heartbeat CPU 0 instructions: 450000003 cycles: 420419388 heartbeat IPC: 0.681904 cumulative IPC: 0.688703 (Simulation time: 0 hr 19 min 6 sec) 
Heartbeat CPU 0 instructions: 460000002 cycles: 435102605 heartbeat IPC: 0.68105 cumulative IPC: 0.688406 (Simulation time: 0 hr 19 min 31 sec) 
Heartbeat CPU 0 instructions: 470000003 cycles: 449886993 heartbeat IPC: 0.676389 cumulative IPC: 0.687953 (Simulation time: 0 hr 19 min 55 sec) 
Heartbeat CPU 0 instructions: 480000000 cycles: 464521466 heartbeat IPC: 0.683318 cumulative IPC: 0.687787 (Simulation time: 0 hr 20 min 20 sec) 
Heartbeat CPU 0 instructions: 490000004 cycles: 479234184 heartbeat IPC: 0.679684 cumulative IPC: 0.687504 (Simulation time: 0 hr 20 min 44 sec) 
Heartbeat CPU 0 instructions: 500000000 cycles: 494078716 heartbeat IPC: 0.673648 cumulative IPC: 0.687033 (Simulation time: 0 hr 21 min 9 sec) 
Heartbeat CPU 0 instructions: 510000002 cycles: 508618418 heartbeat IPC: 0.687772 cumulative IPC: 0.687057 (Simulation time: 0 hr 21 min 34 sec) 
Heartbeat CPU 0 instructions: 520000000 cycles: 523235016 heartbeat IPC: 0.684154 cumulative IPC: 0.686966 (Simulation time: 0 hr 21 min 58 sec) 
Heartbeat CPU 0 instructions: 530000002 cycles: 538031021 heartbeat IPC: 0.675858 cumulative IPC: 0.686624 (Simulation time: 0 hr 22 min 23 sec) 
Heartbeat CPU 0 instructions: 540000003 cycles: 552730360 heartbeat IPC: 0.680303 cumulative IPC: 0.686436 (Simulation time: 0 hr 22 min 48 sec) 
Heartbeat CPU 0 instructions: 550000004 cycles: 567491498 heartbeat IPC: 0.677455 cumulative IPC: 0.686176 (Simulation time: 0 hr 23 min 13 sec) 
Heartbeat CPU 0 instructions: 560000003 cycles: 582298683 heartbeat IPC: 0.675348 cumulative IPC: 0.685871 (Simulation time: 0 hr 23 min 38 sec) 
Heartbeat CPU 0 instructions: 570000000 cycles: 601188422 heartbeat IPC: 0.529388 cumulative IPC: 0.680435 (Simulation time: 0 hr 24 min 6 sec) 
Heartbeat CPU 0 instructions: 580000004 cycles: 616176850 heartbeat IPC: 0.667182 cumulative IPC: 0.680079 (Simulation time: 0 hr 24 min 31 sec) 
Heartbeat CPU 0 instructions: 590000000 cycles: 631231522 heartbeat IPC: 0.664245 cumulative IPC: 0.679664 (Simulation time: 0 hr 24 min 56 sec) 
Heartbeat CPU 0 instructions: 600000000 cycles: 646185652 heartbeat IPC: 0.668712 cumulative IPC: 0.679386 (Simulation time: 0 hr 25 min 21 sec) 
Heartbeat CPU 0 instructions: 610000001 cycles: 661156045 heartbeat IPC: 0.667985 cumulative IPC: 0.679103 (Simulation time: 0 hr 25 min 48 sec) 
Heartbeat CPU 0 instructions: 620000002 cycles: 675917374 heartbeat IPC: 0.677446 cumulative IPC: 0.679063 (Simulation time: 0 hr 26 min 14 sec) 
Heartbeat CPU 0 instructions: 630000001 cycles: 690851692 heartbeat IPC: 0.669599 cumulative IPC: 0.67884 (Simulation time: 0 hr 26 min 40 sec) 
Heartbeat CPU 0 instructions: 640000000 cycles: 705801007 heartbeat IPC: 0.668927 cumulative IPC: 0.678612 (Simulation time: 0 hr 27 min 6 sec) 
Heartbeat CPU 0 instructions: 650000000 cycles: 720667173 heartbeat IPC: 0.672668 cumulative IPC: 0.678478 (Simulation time: 0 hr 27 min 31 sec) 
Heartbeat CPU 0 instructions: 660000000 cycles: 735585433 heartbeat IPC: 0.670319 cumulative IPC: 0.678299 (Simulation time: 0 hr 27 min 56 sec) 
Heartbeat CPU 0 instructions: 670000002 cycles: 750570236 heartbeat IPC: 0.667343 cumulative IPC: 0.678062 (Simulation time: 0 hr 28 min 22 sec) 
Heartbeat CPU 0 instructions: 680000000 cycles: 765570572 heartbeat IPC: 0.666652 cumulative IPC: 0.67782 (Simulation time: 0 hr 28 min 47 sec) 
Heartbeat CPU 0 instructions: 690000001 cycles: 780618728 heartbeat IPC: 0.664533 cumulative IPC: 0.677544 (Simulation time: 0 hr 29 min 12 sec) 
Heartbeat CPU 0 instructions: 700000002 cycles: 795809523 heartbeat IPC: 0.658293 cumulative IPC: 0.677148 (Simulation time: 0 hr 29 min 38 sec) 
Finished CPU 0 instructions: 500000001 cycles: 738391086 cumulative IPC: 0.677148 (Simulation time: 0 hr 29 min 38 sec) 

ChampSim completed all CPUs

Region of Interest Statistics

CPU 0 cumulative IPC: 0.677148 instructions: 500000001 cycles: 738391086
cpu0_L1I TOTAL     ACCESS:     181843  HIT:     181843  MISS:          0
cpu0_L1I LOAD      ACCESS:     181843  HIT:     181843  MISS:          0
cpu0_L1I RFO       ACCESS:          0  HIT:          0  MISS:          0
cpu0_L1I PREFETCH  ACCESS:          0  HIT:          0  MISS:          0
cpu0_L1I WRITEBACK ACCESS:          0  HIT:          0  MISS:          0
cpu0_L1I TRANSLATION ACCESS:          0  HIT:          0  MISS:          0
cpu0_L1I PREFETCH  REQUESTED:          0  ISSUED:          0  USEFUL:          0  USELESS:          0
cpu0_L1I AVERAGE MISS LATENCY: -nan cycles
cpu0_DTLB TOTAL     ACCESS:  137801893  HIT:  133074682  MISS:    4727211
cpu0_DTLB LOAD      ACCESS:  104704234  HIT:  100382458  MISS:    4321776
cpu0_DTLB RFO       ACCESS:   33097659  HIT:   32692224  MISS:     405435
cpu0_DTLB PREFETCH  ACCESS:          0  HIT:          0  MISS:          0
cpu0_DTLB WRITEBACK ACCESS:          0  HIT:          0  MISS:          0
cpu0_DTLB TRANSLATION ACCESS:          0  HIT:          0  MISS:          0
cpu0_DTLB PREFETCH  REQUESTED:          0  ISSUED:          0  USEFUL:          0  USELESS:          0
cpu0_DTLB AVERAGE MISS LATENCY: 11.3083 cycles
cpu0_ITLB TOTAL     ACCESS:   79920935  HIT:   79920935  MISS:          0
cpu0_ITLB LOAD      ACCESS:   79920935  HIT:   79920935  MISS:          0
cpu0_ITLB RFO       ACCESS:          0  HIT:          0  MISS:          0
cpu0_ITLB PREFETCH  ACCESS:          0  HIT:          0  MISS:          0
cpu0_ITLB WRITEBACK ACCESS:          0  HIT:          0  MISS:          0
cpu0_ITLB TRANSLATION ACCESS:          0  HIT:          0  MISS:          0
cpu0_ITLB PREFETCH  REQUESTED:          0  ISSUED:          0  USEFUL:          0  USELESS:          0
cpu0_ITLB AVERAGE MISS LATENCY: -nan cycles
cpu0_STLB TOTAL     ACCESS:    4727211  HIT:    4674939  MISS:      52272
cpu0_STLB LOAD      ACCESS:    4321776  HIT:    4270231  MISS:      51545
cpu0_STLB RFO       ACCESS:     405435  HIT:     404708  MISS:        727
cpu0_STLB PREFETCH  ACCESS:          0  HIT:          0  MISS:          0
cpu0_STLB WRITEBACK ACCESS:          0  HIT:          0  MISS:          0
cpu0_STLB TRANSLATION ACCESS:          0  HIT:          0  MISS:          0
cpu0_STLB PREFETCH  REQUESTED:          0  ISSUED:          0  USEFUL:          0  USELESS:          0
cpu0_STLB AVERAGE MISS LATENCY: 208.027 cycles
cpu0_L1D TOTAL     ACCESS:  189084286  HIT:  184743773  MISS:    4340513
cpu0_L1D LOAD      ACCESS:  130113329  HIT:  125777233  MISS:    4336096
cpu0_L1D RFO       ACCESS:   58918685  HIT:   58914646  MISS:       4039
cpu0_L1D PREFETCH  ACCESS:          0  HIT:          0  MISS:          0
cpu0_L1D WRITEBACK ACCESS:          0  HIT:          0  MISS:          0
cpu0_L1D TRANSLATION ACCESS:      52272  HIT:      51894  MISS:        378
cpu0_L1D PREFETCH  REQUESTED:          0  ISSUED:          0  USEFUL:          0  USELESS:          0
cpu0_L1D AVERAGE MISS LATENCY: 75.8114 cycles
cpu0_L2C TOTAL     ACCESS:    4402807  HIT:    1057617  MISS:    3345190
cpu0_L2C LOAD      ACCESS:    4336096  HIT:     995380  MISS:    3340716
cpu0_L2C RFO       ACCESS:       4039  HIT:       2875  MISS:       1164
cpu0_L2C PREFETCH  ACCESS:          0  HIT:          0  MISS:          0
cpu0_L2C WRITEBACK ACCESS:      62294  HIT:      59093  MISS:       3201
cpu0_L2C TRANSLATION ACCESS:        378  HIT:        269  MISS:        109
cpu0_L2C PREFETCH  REQUESTED:          0  ISSUED:          0  USEFUL:          0  USELESS:          0
cpu0_L2C AVERAGE MISS LATENCY: 83.9865 cycles
LLC TOTAL     ACCESS:    4413022  HIT:     968615  MISS:    3444407
LLC LOAD      ACCESS:    3340716  HIT:     967077  MISS:    2373639
LLC RFO       ACCESS:       1164  HIT:          7  MISS:       1157
LLC PREFETCH  ACCESS:    1057459  HIT:       1514  MISS:    1055945
LLC WRITEBACK ACCESS:      13574  HIT:         17  MISS:      13557
LLC TRANSLATION ACCESS:        109  HIT:          0  MISS:        109
LLC PREFETCH  REQUESTED:    3340716  ISSUED:    3340716  USEFUL:    1200947  USELESS:      89269
LLC AVERAGE MISS LATENCY: 83.0004 cycles

DRAM Statistics
 CHANNEL 0
 RQ ROW_BUFFER_HIT:    2874197  ROW_BUFFER_MISS:     556653
 DBUS AVG_CONGESTED_CYCLE:     3.7982
 WQ ROW_BUFFER_HIT:      11733  ROW_BUFFER_MISS:       1471  FULL:          0


CPU 0 Branch Prediction Accuracy: 87.7984% MPKI: 30.3136 Average ROB Occupancy at Mispredict: 19.3644
Branch type MPKI
BRANCH_DIRECT_JUMP: 0
BRANCH_INDIRECT: 0
BRANCH_CONDITIONAL: 30.3136
BRANCH_DIRECT_CALL: 0
BRANCH_INDIRECT_CALL: 5.6e-05
BRANCH_RETURN: 0

