/home/caslab/workspace/sim/ChampSim/bin/champsim --warmup_instructions 200000000 --simulation_instructions 500000000/ /home/caslab/workspace/sim/traces/speccpu_by_champsim605.mcf_s-484B.champsimtrace.xz
start simulation for 605.mcf_s-484B.champsimtrace.xz

*** ChampSim Multicore Out-of-Order Simulator ***

Warmup Instructions: 200000000
Simulation Instructions: 500000000
Number of CPUs: 1
Off-chip DRAM Size: 4 GiB Channels: 1 Width: 64-bit Data Rate: 3200 MT/s

VirtualMemory physical capacity: 8588881920 num_ppages: 2096895
VirtualMemory page size: 4096 log2_page_size: 12

CPU 0 runs /home/caslab/workspace/sim/traces/speccpu_by_champsim/605.mcf_s-484B.champsimtrace.xz
CPU 0 Bimodal branch predictor
Basic BTB sets: 1024 ways: 8 indirect buffer size: 4096 RAS size: 64
LLC next line prefetcher
WARNING: The extended signature CACHE::prefetch_line(ip, base_addr, pf_addr, fill_this_level, prefetch_metadata) is deprecated.
WARNING: Use CACHE::prefetch_line(pf_addr, fill_this_level, prefetch_metadata) instead.
Heartbeat CPU 0 instructions: 10000003 cycles: 3156150 heartbeat IPC: 3.16842 cumulative IPC: 3.16842 (Simulation time: 0 hr 0 min 36 sec) 
Heartbeat CPU 0 instructions: 20000003 cycles: 6379857 heartbeat IPC: 3.10202 cumulative IPC: 3.13487 (Simulation time: 0 hr 1 min 13 sec) 
Heartbeat CPU 0 instructions: 30000002 cycles: 9632083 heartbeat IPC: 3.07482 cumulative IPC: 3.11459 (Simulation time: 0 hr 1 min 50 sec) 
Heartbeat CPU 0 instructions: 40000004 cycles: 12785886 heartbeat IPC: 3.17078 cumulative IPC: 3.12845 (Simulation time: 0 hr 2 min 26 sec) 
Heartbeat CPU 0 instructions: 50000001 cycles: 16007602 heartbeat IPC: 3.10394 cumulative IPC: 3.12352 (Simulation time: 0 hr 3 min 2 sec) 
Heartbeat CPU 0 instructions: 60000003 cycles: 19209019 heartbeat IPC: 3.12362 cumulative IPC: 3.12353 (Simulation time: 0 hr 3 min 39 sec) 
Heartbeat CPU 0 instructions: 70000004 cycles: 22561534 heartbeat IPC: 2.98284 cumulative IPC: 3.10263 (Simulation time: 0 hr 4 min 16 sec) 
Heartbeat CPU 0 instructions: 80000004 cycles: 25780967 heartbeat IPC: 3.10614 cumulative IPC: 3.10306 (Simulation time: 0 hr 4 min 52 sec) 
Heartbeat CPU 0 instructions: 90000002 cycles: 29070750 heartbeat IPC: 3.03971 cumulative IPC: 3.0959 (Simulation time: 0 hr 5 min 29 sec) 
Heartbeat CPU 0 instructions: 100000003 cycles: 32293348 heartbeat IPC: 3.10309 cumulative IPC: 3.09661 (Simulation time: 0 hr 6 min 5 sec) 
Heartbeat CPU 0 instructions: 110000001 cycles: 35545421 heartbeat IPC: 3.07496 cumulative IPC: 3.09463 (Simulation time: 0 hr 6 min 41 sec) 
Heartbeat CPU 0 instructions: 120000001 cycles: 38703523 heartbeat IPC: 3.16646 cumulative IPC: 3.10049 (Simulation time: 0 hr 7 min 17 sec) 
Heartbeat CPU 0 instructions: 130000000 cycles: 41861643 heartbeat IPC: 3.16644 cumulative IPC: 3.10547 (Simulation time: 0 hr 7 min 53 sec) 
Heartbeat CPU 0 instructions: 140000001 cycles: 45121198 heartbeat IPC: 3.0679 cumulative IPC: 3.10275 (Simulation time: 0 hr 8 min 29 sec) 
Heartbeat CPU 0 instructions: 150000000 cycles: 48274317 heartbeat IPC: 3.17146 cumulative IPC: 3.10724 (Simulation time: 0 hr 9 min 5 sec) 
Heartbeat CPU 0 instructions: 160000003 cycles: 51427481 heartbeat IPC: 3.17142 cumulative IPC: 3.11118 (Simulation time: 0 hr 9 min 41 sec) 
Heartbeat CPU 0 instructions: 170000002 cycles: 54682574 heartbeat IPC: 3.07211 cumulative IPC: 3.10885 (Simulation time: 0 hr 10 min 18 sec) 
Heartbeat CPU 0 instructions: 180000000 cycles: 57895512 heartbeat IPC: 3.11242 cumulative IPC: 3.10905 (Simulation time: 0 hr 10 min 54 sec) 
Heartbeat CPU 0 instructions: 190000004 cycles: 61112474 heartbeat IPC: 3.10852 cumulative IPC: 3.10902 (Simulation time: 0 hr 11 min 31 sec) 
Heartbeat CPU 0 instructions: 200000004 cycles: 64535393 heartbeat IPC: 2.92148 cumulative IPC: 3.09907 (Simulation time: 0 hr 12 min 9 sec) 

Warmup complete CPU 0 instructions: 200000004 cycles: 64535393 (Simulation time: 0 hr 12 min 9 sec) 

Heartbeat CPU 0 instructions: 210000000 cycles: 81151183 heartbeat IPC: 0.601837 cumulative IPC: 0.601837 (Simulation time: 0 hr 12 min 57 sec) 
Heartbeat CPU 0 instructions: 220000003 cycles: 94144836 heartbeat IPC: 0.769607 cumulative IPC: 0.67546 (Simulation time: 0 hr 13 min 39 sec) 
Heartbeat CPU 0 instructions: 230000000 cycles: 109968897 heartbeat IPC: 0.631949 cumulative IPC: 0.660306 (Simulation time: 0 hr 14 min 23 sec) 
Heartbeat CPU 0 instructions: 240000000 cycles: 125159437 heartbeat IPC: 0.658304 cumulative IPC: 0.659804 (Simulation time: 0 hr 15 min 7 sec) 
Heartbeat CPU 0 instructions: 250000001 cycles: 140005790 heartbeat IPC: 0.673566 cumulative IPC: 0.662511 (Simulation time: 0 hr 15 min 51 sec) 
Heartbeat CPU 0 instructions: 260000001 cycles: 153448667 heartbeat IPC: 0.743888 cumulative IPC: 0.674815 (Simulation time: 0 hr 16 min 33 sec) 
Heartbeat CPU 0 instructions: 270000002 cycles: 171420778 heartbeat IPC: 0.556418 cumulative IPC: 0.654907 (Simulation time: 0 hr 17 min 20 sec) 
Heartbeat CPU 0 instructions: 280000002 cycles: 186030987 heartbeat IPC: 0.684453 cumulative IPC: 0.65846 (Simulation time: 0 hr 18 min 3 sec) 
Heartbeat CPU 0 instructions: 290000001 cycles: 201198580 heartbeat IPC: 0.6593 cumulative IPC: 0.658553 (Simulation time: 0 hr 18 min 48 sec) 
Heartbeat CPU 0 instructions: 300000000 cycles: 215160204 heartbeat IPC: 0.716249 cumulative IPC: 0.663901 (Simulation time: 0 hr 19 min 31 sec) 
Heartbeat CPU 0 instructions: 310000000 cycles: 229413572 heartbeat IPC: 0.701589 cumulative IPC: 0.667159 (Simulation time: 0 hr 20 min 15 sec) 
Heartbeat CPU 0 instructions: 320000003 cycles: 245720546 heartbeat IPC: 0.613235 cumulative IPC: 0.662306 (Simulation time: 0 hr 21 min 1 sec) 
Heartbeat CPU 0 instructions: 330000000 cycles: 260596683 heartbeat IPC: 0.672217 cumulative IPC: 0.663058 (Simulation time: 0 hr 21 min 44 sec) 
Heartbeat CPU 0 instructions: 340000001 cycles: 275046197 heartbeat IPC: 0.692065 cumulative IPC: 0.665049 (Simulation time: 0 hr 22 min 29 sec) 
Heartbeat CPU 0 instructions: 350000003 cycles: 290407973 heartbeat IPC: 0.650967 cumulative IPC: 0.664091 (Simulation time: 0 hr 23 min 13 sec) 
Heartbeat CPU 0 instructions: 360000001 cycles: 304451026 heartbeat IPC: 0.712096 cumulative IPC: 0.666901 (Simulation time: 0 hr 23 min 57 sec) 
Heartbeat CPU 0 instructions: 370000000 cycles: 319820880 heartbeat IPC: 0.650624 cumulative IPC: 0.665921 (Simulation time: 0 hr 24 min 41 sec) 
Heartbeat CPU 0 instructions: 380000000 cycles: 332598819 heartbeat IPC: 0.782599 cumulative IPC: 0.671483 (Simulation time: 0 hr 25 min 23 sec) 
Heartbeat CPU 0 instructions: 390000000 cycles: 349278013 heartbeat IPC: 0.599549 cumulative IPC: 0.667269 (Simulation time: 0 hr 26 min 8 sec) 
Heartbeat CPU 0 instructions: 400000001 cycles: 364820366 heartbeat IPC: 0.643403 cumulative IPC: 0.666034 (Simulation time: 0 hr 26 min 53 sec) 
Heartbeat CPU 0 instructions: 410000001 cycles: 378632758 heartbeat IPC: 0.723988 cumulative IPC: 0.668582 (Simulation time: 0 hr 27 min 35 sec) 
Heartbeat CPU 0 instructions: 420000000 cycles: 395068847 heartbeat IPC: 0.608417 cumulative IPC: 0.665591 (Simulation time: 0 hr 28 min 20 sec) 
Heartbeat CPU 0 instructions: 430000000 cycles: 408311649 heartbeat IPC: 0.755127 cumulative IPC: 0.66904 (Simulation time: 0 hr 29 min 2 sec) 
Heartbeat CPU 0 instructions: 440000004 cycles: 424094766 heartbeat IPC: 0.633589 cumulative IPC: 0.667484 (Simulation time: 0 hr 29 min 47 sec) 
Heartbeat CPU 0 instructions: 450000002 cycles: 438397236 heartbeat IPC: 0.69918 cumulative IPC: 0.668696 (Simulation time: 0 hr 30 min 31 sec) 
Heartbeat CPU 0 instructions: 460000000 cycles: 454739019 heartbeat IPC: 0.611928 cumulative IPC: 0.666319 (Simulation time: 0 hr 31 min 17 sec) 
Heartbeat CPU 0 instructions: 470000000 cycles: 470331314 heartbeat IPC: 0.641342 cumulative IPC: 0.665359 (Simulation time: 0 hr 32 min 2 sec) 
Heartbeat CPU 0 instructions: 480000001 cycles: 484032416 heartbeat IPC: 0.729868 cumulative IPC: 0.667466 (Simulation time: 0 hr 32 min 44 sec) 
Heartbeat CPU 0 instructions: 490000000 cycles: 499743066 heartbeat IPC: 0.636511 cumulative IPC: 0.666349 (Simulation time: 0 hr 33 min 28 sec) 
Heartbeat CPU 0 instructions: 500000000 cycles: 514944375 heartbeat IPC: 0.657838 cumulative IPC: 0.666061 (Simulation time: 0 hr 34 min 12 sec) 
Heartbeat CPU 0 instructions: 510000002 cycles: 529613915 heartbeat IPC: 0.681685 cumulative IPC: 0.666554 (Simulation time: 0 hr 34 min 56 sec) 
Heartbeat CPU 0 instructions: 520000000 cycles: 545381616 heartbeat IPC: 0.634208 cumulative IPC: 0.665493 (Simulation time: 0 hr 35 min 42 sec) 
Heartbeat CPU 0 instructions: 530000000 cycles: 558461541 heartbeat IPC: 0.76453 cumulative IPC: 0.668116 (Simulation time: 0 hr 36 min 23 sec) 
Heartbeat CPU 0 instructions: 540000001 cycles: 573172661 heartbeat IPC: 0.679758 cumulative IPC: 0.668453 (Simulation time: 0 hr 37 min 7 sec) 
Heartbeat CPU 0 instructions: 550000000 cycles: 587505512 heartbeat IPC: 0.697698 cumulative IPC: 0.669254 (Simulation time: 0 hr 37 min 51 sec) 
Heartbeat CPU 0 instructions: 560000004 cycles: 601981464 heartbeat IPC: 0.690801 cumulative IPC: 0.669835 (Simulation time: 0 hr 38 min 35 sec) 
Heartbeat CPU 0 instructions: 570000000 cycles: 617431208 heartbeat IPC: 0.64726 cumulative IPC: 0.669204 (Simulation time: 0 hr 39 min 19 sec) 
Heartbeat CPU 0 instructions: 580000000 cycles: 632271593 heartbeat IPC: 0.673837 cumulative IPC: 0.669325 (Simulation time: 0 hr 40 min 4 sec) 
Heartbeat CPU 0 instructions: 590000003 cycles: 646016625 heartbeat IPC: 0.727536 cumulative IPC: 0.670701 (Simulation time: 0 hr 40 min 47 sec) 
Heartbeat CPU 0 instructions: 600000003 cycles: 659579453 heartbeat IPC: 0.737309 cumulative IPC: 0.672219 (Simulation time: 0 hr 41 min 29 sec) 
Heartbeat CPU 0 instructions: 610000001 cycles: 674394328 heartbeat IPC: 0.674997 cumulative IPC: 0.672287 (Simulation time: 0 hr 42 min 12 sec) 
Heartbeat CPU 0 instructions: 620000001 cycles: 689026732 heartbeat IPC: 0.683415 cumulative IPC: 0.672547 (Simulation time: 0 hr 42 min 56 sec) 
Heartbeat CPU 0 instructions: 630000001 cycles: 702214162 heartbeat IPC: 0.758298 cumulative IPC: 0.674321 (Simulation time: 0 hr 43 min 37 sec) 
Heartbeat CPU 0 instructions: 640000000 cycles: 716506110 heartbeat IPC: 0.699695 cumulative IPC: 0.674877 (Simulation time: 0 hr 44 min 21 sec) 
Heartbeat CPU 0 instructions: 650000000 cycles: 731142030 heartbeat IPC: 0.683251 cumulative IPC: 0.675061 (Simulation time: 0 hr 45 min 4 sec) 
Heartbeat CPU 0 instructions: 660000001 cycles: 743775476 heartbeat IPC: 0.79155 cumulative IPC: 0.677227 (Simulation time: 0 hr 45 min 44 sec) 
Heartbeat CPU 0 instructions: 670000000 cycles: 759739535 heartbeat IPC: 0.626407 cumulative IPC: 0.67606 (Simulation time: 0 hr 46 min 30 sec) 
Heartbeat CPU 0 instructions: 680000002 cycles: 772601507 heartbeat IPC: 0.777486 cumulative IPC: 0.677903 (Simulation time: 0 hr 47 min 13 sec) 
Heartbeat CPU 0 instructions: 690000003 cycles: 787667264 heartbeat IPC: 0.663757 cumulative IPC: 0.677608 (Simulation time: 0 hr 47 min 57 sec) 
Heartbeat CPU 0 instructions: 700000000 cycles: 799373426 heartbeat IPC: 0.854251 cumulative IPC: 0.680422 (Simulation time: 0 hr 48 min 40 sec) 
Finished CPU 0 instructions: 500000001 cycles: 734838034 cumulative IPC: 0.680422 (Simulation time: 0 hr 48 min 40 sec) 

ChampSim completed all CPUs

Region of Interest Statistics

CPU 0 cumulative IPC: 0.680422 instructions: 500000001 cycles: 734838034
cpu0_L1I TOTAL     ACCESS:   26454866  HIT:   26454866  MISS:          0
cpu0_L1I LOAD      ACCESS:   26454866  HIT:   26454866  MISS:          0
cpu0_L1I RFO       ACCESS:          0  HIT:          0  MISS:          0
cpu0_L1I PREFETCH  ACCESS:          0  HIT:          0  MISS:          0
cpu0_L1I WRITEBACK ACCESS:          0  HIT:          0  MISS:          0
cpu0_L1I TRANSLATION ACCESS:          0  HIT:          0  MISS:          0
cpu0_L1I PREFETCH  REQUESTED:          0  ISSUED:          0  USEFUL:          0  USELESS:          0
cpu0_L1I AVERAGE MISS LATENCY: -nan cycles
cpu0_DTLB TOTAL     ACCESS:  160260073  HIT:  159793179  MISS:     466894
cpu0_DTLB LOAD      ACCESS:  105000324  HIT:  104552582  MISS:     447742
cpu0_DTLB RFO       ACCESS:   55259749  HIT:   55240597  MISS:      19152
cpu0_DTLB PREFETCH  ACCESS:          0  HIT:          0  MISS:          0
cpu0_DTLB WRITEBACK ACCESS:          0  HIT:          0  MISS:          0
cpu0_DTLB TRANSLATION ACCESS:          0  HIT:          0  MISS:          0
cpu0_DTLB PREFETCH  REQUESTED:          0  ISSUED:          0  USEFUL:          0  USELESS:          0
cpu0_DTLB AVERAGE MISS LATENCY: 61.4627 cycles
cpu0_ITLB TOTAL     ACCESS:   46791398  HIT:   46791398  MISS:          0
cpu0_ITLB LOAD      ACCESS:   46791398  HIT:   46791398  MISS:          0
cpu0_ITLB RFO       ACCESS:          0  HIT:          0  MISS:          0
cpu0_ITLB PREFETCH  ACCESS:          0  HIT:          0  MISS:          0
cpu0_ITLB WRITEBACK ACCESS:          0  HIT:          0  MISS:          0
cpu0_ITLB TRANSLATION ACCESS:          0  HIT:          0  MISS:          0
cpu0_ITLB PREFETCH  REQUESTED:          0  ISSUED:          0  USEFUL:          0  USELESS:          0
cpu0_ITLB AVERAGE MISS LATENCY: -nan cycles
cpu0_STLB TOTAL     ACCESS:     466894  HIT:     349832  MISS:     117062
cpu0_STLB LOAD      ACCESS:     447742  HIT:     349032  MISS:      98710
cpu0_STLB RFO       ACCESS:      19152  HIT:        800  MISS:      18352
cpu0_STLB PREFETCH  ACCESS:          0  HIT:          0  MISS:          0
cpu0_STLB WRITEBACK ACCESS:          0  HIT:          0  MISS:          0
cpu0_STLB TRANSLATION ACCESS:          0  HIT:          0  MISS:          0
cpu0_STLB PREFETCH  REQUESTED:          0  ISSUED:          0  USEFUL:          0  USELESS:          0
cpu0_STLB AVERAGE MISS LATENCY: 209.244 cycles
cpu0_L1D TOTAL     ACCESS:  238253482  HIT:  225499326  MISS:   12754156
cpu0_L1D LOAD      ACCESS:   98583550  HIT:   87000046  MISS:   11583504
cpu0_L1D RFO       ACCESS:  139552870  HIT:  138382750  MISS:    1170120
cpu0_L1D PREFETCH  ACCESS:          0  HIT:          0  MISS:          0
cpu0_L1D WRITEBACK ACCESS:          0  HIT:          0  MISS:          0
cpu0_L1D TRANSLATION ACCESS:     117062  HIT:     116530  MISS:        532
cpu0_L1D PREFETCH  REQUESTED:          0  ISSUED:          0  USEFUL:          0  USELESS:          0
cpu0_L1D AVERAGE MISS LATENCY: 61.6362 cycles
cpu0_L2C TOTAL     ACCESS:   15611936  HIT:   12201969  MISS:    3409967
cpu0_L2C LOAD      ACCESS:   11583504  HIT:    9342934  MISS:    2240570
cpu0_L2C RFO       ACCESS:    1170120  HIT:        775  MISS:    1169345
cpu0_L2C PREFETCH  ACCESS:          0  HIT:          0  MISS:          0
cpu0_L2C WRITEBACK ACCESS:    2857780  HIT:    2857779  MISS:          1
cpu0_L2C TRANSLATION ACCESS:        532  HIT:        481  MISS:         51
cpu0_L2C PREFETCH  REQUESTED:          0  ISSUED:          0  USEFUL:          0  USELESS:          0
cpu0_L2C AVERAGE MISS LATENCY: 188.902 cycles
LLC TOTAL     ACCESS:    8064747  HIT:    1436030  MISS:    6628717
LLC LOAD      ACCESS:    2240570  HIT:     917373  MISS:    1323197
LLC RFO       ACCESS:    1169345  HIT:     110679  MISS:    1058666
LLC PREFETCH  ACCESS:    1818995  HIT:     407978  MISS:    1411017
LLC WRITEBACK ACCESS:    2835786  HIT:          0  MISS:    2835786
LLC TRANSLATION ACCESS:         51  HIT:          0  MISS:         51
LLC PREFETCH  REQUESTED:    2240570  ISSUED:    2240570  USEFUL:    1449596  USELESS:     382655
LLC AVERAGE MISS LATENCY: 115.616 cycles

DRAM Statistics
 CHANNEL 0
 RQ ROW_BUFFER_HIT:     156314  ROW_BUFFER_MISS:    3636617
 DBUS AVG_CONGESTED_CYCLE:     3.9766
 WQ ROW_BUFFER_HIT:     340068  ROW_BUFFER_MISS:    2495315  FULL:          0


CPU 0 Branch Prediction Accuracy: 97.6777% MPKI: 2.28758 Average ROB Occupancy at Mispredict: 191.378
Branch type MPKI
BRANCH_DIRECT_JUMP: 0
BRANCH_INDIRECT: 0
BRANCH_CONDITIONAL: 2.28758
BRANCH_DIRECT_CALL: 0
BRANCH_INDIRECT_CALL: 0
BRANCH_RETURN: 0

