/home/caslab/workspace/sim/ChampSim/bin/champsim --warmup_instructions 200000000 --simulation_instructions 500000000/ /home/caslab/workspace/sim/traces/speccpu_by_champsim607.cactuBSSN_s-4004B.champsimtrace.xz
start simulation for 607.cactuBSSN_s-4004B.champsimtrace.xz

*** ChampSim Multicore Out-of-Order Simulator ***

Warmup Instructions: 200000000
Simulation Instructions: 500000000
Number of CPUs: 1
Off-chip DRAM Size: 4 GiB Channels: 1 Width: 64-bit Data Rate: 3200 MT/s

VirtualMemory physical capacity: 8588881920 num_ppages: 2096895
VirtualMemory page size: 4096 log2_page_size: 12

CPU 0 runs /home/caslab/workspace/sim/traces/speccpu_by_champsim/607.cactuBSSN_s-4004B.champsimtrace.xz
CPU 0 Bimodal branch predictor
Basic BTB sets: 1024 ways: 8 indirect buffer size: 4096 RAS size: 64
LLC next line prefetcher
WARNING: The extended signature CACHE::prefetch_line(ip, base_addr, pf_addr, fill_this_level, prefetch_metadata) is deprecated.
WARNING: Use CACHE::prefetch_line(pf_addr, fill_this_level, prefetch_metadata) instead.
Heartbeat CPU 0 instructions: 10000001 cycles: 3680612 heartbeat IPC: 2.71694 cumulative IPC: 2.71694 (Simulation time: 0 hr 0 min 41 sec) 
Heartbeat CPU 0 instructions: 20000004 cycles: 7362049 heartbeat IPC: 2.71633 cumulative IPC: 2.71664 (Simulation time: 0 hr 1 min 21 sec) 
Heartbeat CPU 0 instructions: 30000000 cycles: 11042019 heartbeat IPC: 2.71741 cumulative IPC: 2.71689 (Simulation time: 0 hr 2 min 1 sec) 
Heartbeat CPU 0 instructions: 40000001 cycles: 14723211 heartbeat IPC: 2.71651 cumulative IPC: 2.7168 (Simulation time: 0 hr 2 min 42 sec) 
Heartbeat CPU 0 instructions: 50000002 cycles: 18403472 heartbeat IPC: 2.7172 cumulative IPC: 2.71688 (Simulation time: 0 hr 3 min 23 sec) 
Heartbeat CPU 0 instructions: 60000003 cycles: 22084221 heartbeat IPC: 2.71684 cumulative IPC: 2.71687 (Simulation time: 0 hr 4 min 4 sec) 
Heartbeat CPU 0 instructions: 70000002 cycles: 25764830 heartbeat IPC: 2.71694 cumulative IPC: 2.71688 (Simulation time: 0 hr 4 min 44 sec) 
Heartbeat CPU 0 instructions: 80000002 cycles: 29444975 heartbeat IPC: 2.71728 cumulative IPC: 2.71693 (Simulation time: 0 hr 5 min 24 sec) 
Heartbeat CPU 0 instructions: 90000000 cycles: 33125871 heartbeat IPC: 2.71673 cumulative IPC: 2.71691 (Simulation time: 0 hr 6 min 4 sec) 
Heartbeat CPU 0 instructions: 100000004 cycles: 36804817 heartbeat IPC: 2.71817 cumulative IPC: 2.71704 (Simulation time: 0 hr 6 min 44 sec) 
Heartbeat CPU 0 instructions: 110000004 cycles: 40485255 heartbeat IPC: 2.71707 cumulative IPC: 2.71704 (Simulation time: 0 hr 7 min 24 sec) 
Heartbeat CPU 0 instructions: 120000004 cycles: 44164297 heartbeat IPC: 2.7181 cumulative IPC: 2.71713 (Simulation time: 0 hr 8 min 4 sec) 
Heartbeat CPU 0 instructions: 130000000 cycles: 47844613 heartbeat IPC: 2.71716 cumulative IPC: 2.71713 (Simulation time: 0 hr 8 min 45 sec) 
Heartbeat CPU 0 instructions: 140000000 cycles: 51523653 heartbeat IPC: 2.7181 cumulative IPC: 2.7172 (Simulation time: 0 hr 9 min 25 sec) 
Heartbeat CPU 0 instructions: 150000003 cycles: 55204510 heartbeat IPC: 2.71676 cumulative IPC: 2.71717 (Simulation time: 0 hr 10 min 5 sec) 
Heartbeat CPU 0 instructions: 160000000 cycles: 58883118 heartbeat IPC: 2.71842 cumulative IPC: 2.71725 (Simulation time: 0 hr 10 min 45 sec) 
Heartbeat CPU 0 instructions: 170000002 cycles: 62564006 heartbeat IPC: 2.71674 cumulative IPC: 2.71722 (Simulation time: 0 hr 11 min 25 sec) 
Heartbeat CPU 0 instructions: 180000002 cycles: 66243010 heartbeat IPC: 2.71813 cumulative IPC: 2.71727 (Simulation time: 0 hr 12 min 5 sec) 
Heartbeat CPU 0 instructions: 190000000 cycles: 69924317 heartbeat IPC: 2.71643 cumulative IPC: 2.71722 (Simulation time: 0 hr 12 min 45 sec) 
Heartbeat CPU 0 instructions: 200000004 cycles: 73603825 heartbeat IPC: 2.71776 cumulative IPC: 2.71725 (Simulation time: 0 hr 13 min 25 sec) 

Warmup complete CPU 0 instructions: 200000004 cycles: 73603825 (Simulation time: 0 hr 13 min 25 sec) 

Heartbeat CPU 0 instructions: 210000001 cycles: 78389587 heartbeat IPC: 2.08953 cumulative IPC: 2.08953 (Simulation time: 0 hr 14 min 9 sec) 
Heartbeat CPU 0 instructions: 220000001 cycles: 83178463 heartbeat IPC: 2.08817 cumulative IPC: 2.08885 (Simulation time: 0 hr 14 min 54 sec) 
Heartbeat CPU 0 instructions: 230000001 cycles: 87971168 heartbeat IPC: 2.0865 cumulative IPC: 2.08807 (Simulation time: 0 hr 15 min 39 sec) 
Heartbeat CPU 0 instructions: 240000001 cycles: 92774578 heartbeat IPC: 2.08185 cumulative IPC: 2.08651 (Simulation time: 0 hr 16 min 24 sec) 
Heartbeat CPU 0 instructions: 250000003 cycles: 97580300 heartbeat IPC: 2.08085 cumulative IPC: 2.08538 (Simulation time: 0 hr 17 min 10 sec) 
Heartbeat CPU 0 instructions: 260000003 cycles: 102365174 heartbeat IPC: 2.08992 cumulative IPC: 2.08613 (Simulation time: 0 hr 17 min 54 sec) 
Heartbeat CPU 0 instructions: 270000004 cycles: 107159358 heartbeat IPC: 2.08586 cumulative IPC: 2.08609 (Simulation time: 0 hr 18 min 39 sec) 
Heartbeat CPU 0 instructions: 280000000 cycles: 111960085 heartbeat IPC: 2.08302 cumulative IPC: 2.08571 (Simulation time: 0 hr 19 min 23 sec) 
Heartbeat CPU 0 instructions: 290000003 cycles: 116750928 heartbeat IPC: 2.08732 cumulative IPC: 2.08589 (Simulation time: 0 hr 20 min 8 sec) 
Heartbeat CPU 0 instructions: 300000001 cycles: 121537524 heartbeat IPC: 2.08917 cumulative IPC: 2.08621 (Simulation time: 0 hr 20 min 52 sec) 
Heartbeat CPU 0 instructions: 310000001 cycles: 126325339 heartbeat IPC: 2.08864 cumulative IPC: 2.08643 (Simulation time: 0 hr 21 min 37 sec) 
Heartbeat CPU 0 instructions: 320000003 cycles: 131108337 heartbeat IPC: 2.09074 cumulative IPC: 2.08679 (Simulation time: 0 hr 22 min 21 sec) 
Heartbeat CPU 0 instructions: 330000000 cycles: 135896393 heartbeat IPC: 2.08853 cumulative IPC: 2.08693 (Simulation time: 0 hr 23 min 5 sec) 
Heartbeat CPU 0 instructions: 340000000 cycles: 140681426 heartbeat IPC: 2.08985 cumulative IPC: 2.08713 (Simulation time: 0 hr 23 min 49 sec) 
Heartbeat CPU 0 instructions: 350000003 cycles: 145463934 heartbeat IPC: 2.09095 cumulative IPC: 2.08739 (Simulation time: 0 hr 24 min 34 sec) 
Heartbeat CPU 0 instructions: 360000000 cycles: 150251939 heartbeat IPC: 2.08855 cumulative IPC: 2.08746 (Simulation time: 0 hr 25 min 18 sec) 
Heartbeat CPU 0 instructions: 370000001 cycles: 155031323 heartbeat IPC: 2.09232 cumulative IPC: 2.08775 (Simulation time: 0 hr 26 min 3 sec) 
Heartbeat CPU 0 instructions: 380000001 cycles: 159820646 heartbeat IPC: 2.08798 cumulative IPC: 2.08776 (Simulation time: 0 hr 26 min 47 sec) 
Heartbeat CPU 0 instructions: 390000003 cycles: 164621110 heartbeat IPC: 2.08313 cumulative IPC: 2.08752 (Simulation time: 0 hr 27 min 31 sec) 
Heartbeat CPU 0 instructions: 400000001 cycles: 169418085 heartbeat IPC: 2.08465 cumulative IPC: 2.08737 (Simulation time: 0 hr 28 min 16 sec) 
Heartbeat CPU 0 instructions: 410000000 cycles: 174202510 heartbeat IPC: 2.09012 cumulative IPC: 2.0875 (Simulation time: 0 hr 29 min 0 sec) 
Heartbeat CPU 0 instructions: 420000003 cycles: 178992565 heartbeat IPC: 2.08766 cumulative IPC: 2.08751 (Simulation time: 0 hr 29 min 45 sec) 
Heartbeat CPU 0 instructions: 430000001 cycles: 183782116 heartbeat IPC: 2.08788 cumulative IPC: 2.08753 (Simulation time: 0 hr 30 min 29 sec) 
Heartbeat CPU 0 instructions: 440000001 cycles: 188574201 heartbeat IPC: 2.08677 cumulative IPC: 2.08749 (Simulation time: 0 hr 31 min 13 sec) 
Heartbeat CPU 0 instructions: 450000004 cycles: 193361956 heartbeat IPC: 2.08866 cumulative IPC: 2.08754 (Simulation time: 0 hr 31 min 58 sec) 
Heartbeat CPU 0 instructions: 460000001 cycles: 198150495 heartbeat IPC: 2.08832 cumulative IPC: 2.08757 (Simulation time: 0 hr 32 min 42 sec) 
Heartbeat CPU 0 instructions: 470000003 cycles: 202944095 heartbeat IPC: 2.08612 cumulative IPC: 2.08752 (Simulation time: 0 hr 33 min 27 sec) 
Heartbeat CPU 0 instructions: 480000003 cycles: 207727921 heartbeat IPC: 2.09038 cumulative IPC: 2.08762 (Simulation time: 0 hr 34 min 11 sec) 
Heartbeat CPU 0 instructions: 490000004 cycles: 212513472 heartbeat IPC: 2.08962 cumulative IPC: 2.08769 (Simulation time: 0 hr 34 min 55 sec) 
Heartbeat CPU 0 instructions: 500000000 cycles: 217298747 heartbeat IPC: 2.08974 cumulative IPC: 2.08776 (Simulation time: 0 hr 35 min 40 sec) 
Heartbeat CPU 0 instructions: 510000001 cycles: 222081851 heartbeat IPC: 2.09069 cumulative IPC: 2.08785 (Simulation time: 0 hr 36 min 24 sec) 
Heartbeat CPU 0 instructions: 520000000 cycles: 226865843 heartbeat IPC: 2.0903 cumulative IPC: 2.08793 (Simulation time: 0 hr 37 min 8 sec) 
Heartbeat CPU 0 instructions: 530000004 cycles: 231651920 heartbeat IPC: 2.08939 cumulative IPC: 2.08797 (Simulation time: 0 hr 37 min 53 sec) 
Heartbeat CPU 0 instructions: 540000002 cycles: 236455294 heartbeat IPC: 2.08187 cumulative IPC: 2.08779 (Simulation time: 0 hr 38 min 38 sec) 
Heartbeat CPU 0 instructions: 550000001 cycles: 241244912 heartbeat IPC: 2.08785 cumulative IPC: 2.08779 (Simulation time: 0 hr 39 min 23 sec) 
Heartbeat CPU 0 instructions: 560000004 cycles: 246027755 heartbeat IPC: 2.09081 cumulative IPC: 2.08788 (Simulation time: 0 hr 40 min 8 sec) 
Heartbeat CPU 0 instructions: 570000002 cycles: 250815312 heartbeat IPC: 2.08875 cumulative IPC: 2.0879 (Simulation time: 0 hr 40 min 52 sec) 
Heartbeat CPU 0 instructions: 580000000 cycles: 255602505 heartbeat IPC: 2.08891 cumulative IPC: 2.08793 (Simulation time: 0 hr 41 min 36 sec) 
Heartbeat CPU 0 instructions: 590000004 cycles: 260391944 heartbeat IPC: 2.08793 cumulative IPC: 2.08793 (Simulation time: 0 hr 42 min 21 sec) 
Heartbeat CPU 0 instructions: 600000004 cycles: 265204367 heartbeat IPC: 2.07796 cumulative IPC: 2.08768 (Simulation time: 0 hr 43 min 5 sec) 
Heartbeat CPU 0 instructions: 610000001 cycles: 269995980 heartbeat IPC: 2.08698 cumulative IPC: 2.08766 (Simulation time: 0 hr 43 min 49 sec) 
Heartbeat CPU 0 instructions: 620000002 cycles: 274793625 heartbeat IPC: 2.08436 cumulative IPC: 2.08758 (Simulation time: 0 hr 44 min 34 sec) 
Heartbeat CPU 0 instructions: 630000003 cycles: 279582136 heartbeat IPC: 2.08833 cumulative IPC: 2.0876 (Simulation time: 0 hr 45 min 18 sec) 
Heartbeat CPU 0 instructions: 640000002 cycles: 284374228 heartbeat IPC: 2.08677 cumulative IPC: 2.08758 (Simulation time: 0 hr 46 min 3 sec) 
Heartbeat CPU 0 instructions: 650000000 cycles: 289156030 heartbeat IPC: 2.09126 cumulative IPC: 2.08766 (Simulation time: 0 hr 46 min 47 sec) 
Heartbeat CPU 0 instructions: 660000004 cycles: 293941702 heartbeat IPC: 2.08957 cumulative IPC: 2.0877 (Simulation time: 0 hr 47 min 32 sec) 
Heartbeat CPU 0 instructions: 670000002 cycles: 298722400 heartbeat IPC: 2.09174 cumulative IPC: 2.08779 (Simulation time: 0 hr 48 min 17 sec) 
Heartbeat CPU 0 instructions: 680000000 cycles: 303508043 heartbeat IPC: 2.08958 cumulative IPC: 2.08783 (Simulation time: 0 hr 49 min 2 sec) 
Heartbeat CPU 0 instructions: 690000001 cycles: 308307505 heartbeat IPC: 2.08357 cumulative IPC: 2.08774 (Simulation time: 0 hr 49 min 46 sec) 
Heartbeat CPU 0 instructions: 700000002 cycles: 313097744 heartbeat IPC: 2.08758 cumulative IPC: 2.08774 (Simulation time: 0 hr 50 min 30 sec) 
Finished CPU 0 instructions: 500000003 cycles: 239493920 cumulative IPC: 2.08774 (Simulation time: 0 hr 50 min 30 sec) 

ChampSim completed all CPUs

Region of Interest Statistics

CPU 0 cumulative IPC: 2.08774 instructions: 500000003 cycles: 239493920
cpu0_L1I TOTAL     ACCESS:   49116949  HIT:   49116841  MISS:        108
cpu0_L1I LOAD      ACCESS:   49116949  HIT:   49116841  MISS:        108
cpu0_L1I RFO       ACCESS:          0  HIT:          0  MISS:          0
cpu0_L1I PREFETCH  ACCESS:          0  HIT:          0  MISS:          0
cpu0_L1I WRITEBACK ACCESS:          0  HIT:          0  MISS:          0
cpu0_L1I TRANSLATION ACCESS:          0  HIT:          0  MISS:          0
cpu0_L1I PREFETCH  REQUESTED:          0  ISSUED:          0  USEFUL:          0  USELESS:          0
cpu0_L1I AVERAGE MISS LATENCY: 141.398 cycles
cpu0_DTLB TOTAL     ACCESS:  123526570  HIT:  116782866  MISS:    6743704
cpu0_DTLB LOAD      ACCESS:  107117186  HIT:  101153392  MISS:    5963794
cpu0_DTLB RFO       ACCESS:   16409384  HIT:   15629474  MISS:     779910
cpu0_DTLB PREFETCH  ACCESS:          0  HIT:          0  MISS:          0
cpu0_DTLB WRITEBACK ACCESS:          0  HIT:          0  MISS:          0
cpu0_DTLB TRANSLATION ACCESS:          0  HIT:          0  MISS:          0
cpu0_DTLB PREFETCH  REQUESTED:          0  ISSUED:          0  USEFUL:          0  USELESS:          0
cpu0_DTLB AVERAGE MISS LATENCY: 9.5531 cycles
cpu0_ITLB TOTAL     ACCESS:    9613804  HIT:    9613794  MISS:         10
cpu0_ITLB LOAD      ACCESS:    9613804  HIT:    9613794  MISS:         10
cpu0_ITLB RFO       ACCESS:          0  HIT:          0  MISS:          0
cpu0_ITLB PREFETCH  ACCESS:          0  HIT:          0  MISS:          0
cpu0_ITLB WRITEBACK ACCESS:          0  HIT:          0  MISS:          0
cpu0_ITLB TRANSLATION ACCESS:          0  HIT:          0  MISS:          0
cpu0_ITLB PREFETCH  REQUESTED:          0  ISSUED:          0  USEFUL:          0  USELESS:          0
cpu0_ITLB AVERAGE MISS LATENCY: 218.1 cycles
cpu0_STLB TOTAL     ACCESS:    6743714  HIT:    6734060  MISS:       9654
cpu0_STLB LOAD      ACCESS:    5963804  HIT:    5958852  MISS:       4952
cpu0_STLB RFO       ACCESS:     779910  HIT:     775208  MISS:       4702
cpu0_STLB PREFETCH  ACCESS:          0  HIT:          0  MISS:          0
cpu0_STLB WRITEBACK ACCESS:          0  HIT:          0  MISS:          0
cpu0_STLB TRANSLATION ACCESS:          0  HIT:          0  MISS:          0
cpu0_STLB PREFETCH  REQUESTED:          0  ISSUED:          0  USEFUL:          0  USELESS:          0
cpu0_STLB AVERAGE MISS LATENCY: 266.527 cycles
cpu0_L1D TOTAL     ACCESS:  186418972  HIT:  185091823  MISS:    1327149
cpu0_L1D LOAD      ACCESS:  146219564  HIT:  145186723  MISS:    1032841
cpu0_L1D RFO       ACCESS:   40189760  HIT:   39895455  MISS:     294305
cpu0_L1D PREFETCH  ACCESS:          0  HIT:          0  MISS:          0
cpu0_L1D WRITEBACK ACCESS:          0  HIT:          0  MISS:          0
cpu0_L1D TRANSLATION ACCESS:       9648  HIT:       9645  MISS:          3
cpu0_L1D PREFETCH  REQUESTED:          0  ISSUED:          0  USEFUL:          0  USELESS:          0
cpu0_L1D AVERAGE MISS LATENCY: 596.942 cycles
cpu0_L2C TOTAL     ACCESS:    1622286  HIT:    1016006  MISS:     606280
cpu0_L2C LOAD      ACCESS:    1032949  HIT:     720935  MISS:     312014
cpu0_L2C RFO       ACCESS:     294305  HIT:         40  MISS:     294265
cpu0_L2C PREFETCH  ACCESS:          0  HIT:          0  MISS:          0
cpu0_L2C WRITEBACK ACCESS:     295029  HIT:     295029  MISS:          0
cpu0_L2C TRANSLATION ACCESS:          3  HIT:          2  MISS:          1
cpu0_L2C PREFETCH  REQUESTED:          0  ISSUED:          0  USEFUL:          0  USELESS:          0
cpu0_L2C AVERAGE MISS LATENCY: 1281.81 cycles
LLC TOTAL     ACCESS:     973757  HIT:     306841  MISS:     666916
LLC LOAD      ACCESS:     312014  HIT:     306620  MISS:       5394
LLC RFO       ACCESS:     294265  HIT:          0  MISS:     294265
LLC PREFETCH  ACCESS:     311942  HIT:        221  MISS:     311721
LLC WRITEBACK ACCESS:      55535  HIT:          0  MISS:      55535
LLC TRANSLATION ACCESS:          1  HIT:          0  MISS:          1
LLC PREFETCH  REQUESTED:     312014  ISSUED:     312014  USEFUL:     306644  USELESS:       5088
LLC AVERAGE MISS LATENCY: 1899.52 cycles

DRAM Statistics
 CHANNEL 0
 RQ ROW_BUFFER_HIT:         35  ROW_BUFFER_MISS:     611346
 DBUS AVG_CONGESTED_CYCLE:    3.99828
 WQ ROW_BUFFER_HIT:        129  ROW_BUFFER_MISS:      48915  FULL:          0


CPU 0 Branch Prediction Accuracy: 99.948% MPKI: 0.004636 Average ROB Occupancy at Mispredict: 156.607
Branch type MPKI
BRANCH_DIRECT_JUMP: 5.4e-05
BRANCH_INDIRECT: 8e-06
BRANCH_CONDITIONAL: 0.00441
BRANCH_DIRECT_CALL: 8.4e-05
BRANCH_INDIRECT_CALL: 0
BRANCH_RETURN: 8e-05

