/home/caslab/workspace/sim/ChampSim/bin/champsim --warmup_instructions 200000000 --simulation_instructions 500000000/ /home/caslab/workspace/sim/traces/speccpu_by_champsim607.cactuBSSN_s-3477B.champsimtrace.xz
start simulation for 607.cactuBSSN_s-3477B.champsimtrace.xz

*** ChampSim Multicore Out-of-Order Simulator ***

Warmup Instructions: 200000000
Simulation Instructions: 500000000
Number of CPUs: 1
Off-chip DRAM Size: 4 GiB Channels: 1 Width: 64-bit Data Rate: 3200 MT/s

VirtualMemory physical capacity: 8588881920 num_ppages: 2096895
VirtualMemory page size: 4096 log2_page_size: 12

CPU 0 runs /home/caslab/workspace/sim/traces/speccpu_by_champsim/607.cactuBSSN_s-3477B.champsimtrace.xz
CPU 0 Bimodal branch predictor
Basic BTB sets: 1024 ways: 8 indirect buffer size: 4096 RAS size: 64
LLC next line prefetcher
WARNING: The extended signature CACHE::prefetch_line(ip, base_addr, pf_addr, fill_this_level, prefetch_metadata) is deprecated.
WARNING: Use CACHE::prefetch_line(pf_addr, fill_this_level, prefetch_metadata) instead.
Heartbeat CPU 0 instructions: 10000003 cycles: 3679149 heartbeat IPC: 2.71802 cumulative IPC: 2.71802 (Simulation time: 0 hr 0 min 40 sec) 
Heartbeat CPU 0 instructions: 20000002 cycles: 7356483 heartbeat IPC: 2.71936 cumulative IPC: 2.71869 (Simulation time: 0 hr 1 min 19 sec) 
Heartbeat CPU 0 instructions: 30000004 cycles: 11034750 heartbeat IPC: 2.71867 cumulative IPC: 2.71868 (Simulation time: 0 hr 1 min 59 sec) 
Heartbeat CPU 0 instructions: 40000004 cycles: 14713489 heartbeat IPC: 2.71832 cumulative IPC: 2.71859 (Simulation time: 0 hr 2 min 38 sec) 
Heartbeat CPU 0 instructions: 50000000 cycles: 18392466 heartbeat IPC: 2.71815 cumulative IPC: 2.7185 (Simulation time: 0 hr 3 min 19 sec) 
Heartbeat CPU 0 instructions: 60000000 cycles: 22071063 heartbeat IPC: 2.71843 cumulative IPC: 2.71849 (Simulation time: 0 hr 3 min 58 sec) 
Heartbeat CPU 0 instructions: 70000000 cycles: 25749981 heartbeat IPC: 2.71819 cumulative IPC: 2.71845 (Simulation time: 0 hr 4 min 38 sec) 
Heartbeat CPU 0 instructions: 80000002 cycles: 29428305 heartbeat IPC: 2.71863 cumulative IPC: 2.71847 (Simulation time: 0 hr 5 min 17 sec) 
Heartbeat CPU 0 instructions: 90000000 cycles: 33106943 heartbeat IPC: 2.7184 cumulative IPC: 2.71846 (Simulation time: 0 hr 5 min 56 sec) 
Heartbeat CPU 0 instructions: 100000000 cycles: 36785855 heartbeat IPC: 2.71819 cumulative IPC: 2.71844 (Simulation time: 0 hr 6 min 36 sec) 
Heartbeat CPU 0 instructions: 110000000 cycles: 40464011 heartbeat IPC: 2.71875 cumulative IPC: 2.71847 (Simulation time: 0 hr 7 min 15 sec) 
Heartbeat CPU 0 instructions: 120000002 cycles: 44142947 heartbeat IPC: 2.71818 cumulative IPC: 2.71844 (Simulation time: 0 hr 7 min 55 sec) 
Heartbeat CPU 0 instructions: 130000002 cycles: 47819993 heartbeat IPC: 2.71957 cumulative IPC: 2.71853 (Simulation time: 0 hr 8 min 34 sec) 
Heartbeat CPU 0 instructions: 140000000 cycles: 51499173 heartbeat IPC: 2.718 cumulative IPC: 2.71849 (Simulation time: 0 hr 9 min 14 sec) 
Heartbeat CPU 0 instructions: 150000000 cycles: 55178086 heartbeat IPC: 2.71819 cumulative IPC: 2.71847 (Simulation time: 0 hr 9 min 53 sec) 
Heartbeat CPU 0 instructions: 160000003 cycles: 58856198 heartbeat IPC: 2.71879 cumulative IPC: 2.71849 (Simulation time: 0 hr 10 min 34 sec) 
Heartbeat CPU 0 instructions: 170000000 cycles: 62534623 heartbeat IPC: 2.71855 cumulative IPC: 2.71849 (Simulation time: 0 hr 11 min 13 sec) 
Heartbeat CPU 0 instructions: 180000000 cycles: 66212936 heartbeat IPC: 2.71864 cumulative IPC: 2.7185 (Simulation time: 0 hr 11 min 53 sec) 
Heartbeat CPU 0 instructions: 190000000 cycles: 69891181 heartbeat IPC: 2.71869 cumulative IPC: 2.71851 (Simulation time: 0 hr 12 min 32 sec) 
Heartbeat CPU 0 instructions: 200000002 cycles: 73569741 heartbeat IPC: 2.71846 cumulative IPC: 2.71851 (Simulation time: 0 hr 13 min 12 sec) 

Warmup complete CPU 0 instructions: 200000002 cycles: 73569741 (Simulation time: 0 hr 13 min 12 sec) 

Heartbeat CPU 0 instructions: 210000000 cycles: 78275598 heartbeat IPC: 2.12501 cumulative IPC: 2.12501 (Simulation time: 0 hr 13 min 55 sec) 
Heartbeat CPU 0 instructions: 220000004 cycles: 82978884 heartbeat IPC: 2.12617 cumulative IPC: 2.12559 (Simulation time: 0 hr 14 min 39 sec) 
Heartbeat CPU 0 instructions: 230000001 cycles: 87684600 heartbeat IPC: 2.12507 cumulative IPC: 2.12542 (Simulation time: 0 hr 15 min 22 sec) 
Heartbeat CPU 0 instructions: 240000002 cycles: 92390238 heartbeat IPC: 2.12511 cumulative IPC: 2.12534 (Simulation time: 0 hr 16 min 6 sec) 
Heartbeat CPU 0 instructions: 250000002 cycles: 97094568 heartbeat IPC: 2.1257 cumulative IPC: 2.12541 (Simulation time: 0 hr 16 min 50 sec) 
Heartbeat CPU 0 instructions: 260000002 cycles: 101813991 heartbeat IPC: 2.1189 cumulative IPC: 2.12433 (Simulation time: 0 hr 17 min 33 sec) 
Heartbeat CPU 0 instructions: 270000001 cycles: 106516327 heartbeat IPC: 2.1266 cumulative IPC: 2.12465 (Simulation time: 0 hr 18 min 17 sec) 
Heartbeat CPU 0 instructions: 280000003 cycles: 111222547 heartbeat IPC: 2.12485 cumulative IPC: 2.12468 (Simulation time: 0 hr 19 min 1 sec) 
Heartbeat CPU 0 instructions: 290000003 cycles: 115921494 heartbeat IPC: 2.12814 cumulative IPC: 2.12506 (Simulation time: 0 hr 19 min 46 sec) 
Heartbeat CPU 0 instructions: 300000004 cycles: 120640169 heartbeat IPC: 2.11924 cumulative IPC: 2.12448 (Simulation time: 0 hr 20 min 29 sec) 
Heartbeat CPU 0 instructions: 310000001 cycles: 125337672 heartbeat IPC: 2.12879 cumulative IPC: 2.12487 (Simulation time: 0 hr 21 min 13 sec) 
Heartbeat CPU 0 instructions: 320000000 cycles: 130043126 heartbeat IPC: 2.12519 cumulative IPC: 2.12489 (Simulation time: 0 hr 21 min 57 sec) 
Heartbeat CPU 0 instructions: 330000001 cycles: 134742517 heartbeat IPC: 2.12794 cumulative IPC: 2.12513 (Simulation time: 0 hr 22 min 40 sec) 
Heartbeat CPU 0 instructions: 340000002 cycles: 139444941 heartbeat IPC: 2.12656 cumulative IPC: 2.12523 (Simulation time: 0 hr 23 min 24 sec) 
Heartbeat CPU 0 instructions: 350000002 cycles: 144147129 heartbeat IPC: 2.12667 cumulative IPC: 2.12533 (Simulation time: 0 hr 24 min 7 sec) 
Heartbeat CPU 0 instructions: 360000000 cycles: 148868126 heartbeat IPC: 2.1182 cumulative IPC: 2.12488 (Simulation time: 0 hr 24 min 52 sec) 
Heartbeat CPU 0 instructions: 370000000 cycles: 153567348 heartbeat IPC: 2.12801 cumulative IPC: 2.12506 (Simulation time: 0 hr 25 min 35 sec) 
Heartbeat CPU 0 instructions: 380000004 cycles: 158268930 heartbeat IPC: 2.12694 cumulative IPC: 2.12517 (Simulation time: 0 hr 26 min 19 sec) 
Heartbeat CPU 0 instructions: 390000004 cycles: 162974195 heartbeat IPC: 2.12528 cumulative IPC: 2.12517 (Simulation time: 0 hr 27 min 3 sec) 
Heartbeat CPU 0 instructions: 400000003 cycles: 167678713 heartbeat IPC: 2.12562 cumulative IPC: 2.1252 (Simulation time: 0 hr 27 min 46 sec) 
Heartbeat CPU 0 instructions: 410000004 cycles: 172386057 heartbeat IPC: 2.12434 cumulative IPC: 2.12516 (Simulation time: 0 hr 28 min 30 sec) 
Heartbeat CPU 0 instructions: 420000000 cycles: 177088230 heartbeat IPC: 2.12668 cumulative IPC: 2.12522 (Simulation time: 0 hr 29 min 14 sec) 
Heartbeat CPU 0 instructions: 430000002 cycles: 181798353 heartbeat IPC: 2.12309 cumulative IPC: 2.12513 (Simulation time: 0 hr 29 min 58 sec) 
Heartbeat CPU 0 instructions: 440000003 cycles: 186500346 heartbeat IPC: 2.12676 cumulative IPC: 2.1252 (Simulation time: 0 hr 30 min 42 sec) 
Heartbeat CPU 0 instructions: 450000001 cycles: 191208156 heartbeat IPC: 2.12413 cumulative IPC: 2.12516 (Simulation time: 0 hr 31 min 26 sec) 
Heartbeat CPU 0 instructions: 460000000 cycles: 195906776 heartbeat IPC: 2.12828 cumulative IPC: 2.12528 (Simulation time: 0 hr 32 min 9 sec) 
Heartbeat CPU 0 instructions: 470000003 cycles: 200622536 heartbeat IPC: 2.12055 cumulative IPC: 2.1251 (Simulation time: 0 hr 32 min 53 sec) 
Heartbeat CPU 0 instructions: 480000003 cycles: 205321289 heartbeat IPC: 2.12822 cumulative IPC: 2.12521 (Simulation time: 0 hr 33 min 37 sec) 
Heartbeat CPU 0 instructions: 490000003 cycles: 210027700 heartbeat IPC: 2.12476 cumulative IPC: 2.1252 (Simulation time: 0 hr 34 min 20 sec) 
Heartbeat CPU 0 instructions: 500000001 cycles: 214726417 heartbeat IPC: 2.12824 cumulative IPC: 2.1253 (Simulation time: 0 hr 35 min 4 sec) 
Heartbeat CPU 0 instructions: 510000002 cycles: 219443943 heartbeat IPC: 2.11976 cumulative IPC: 2.12512 (Simulation time: 0 hr 35 min 48 sec) 
Heartbeat CPU 0 instructions: 520000000 cycles: 224148077 heartbeat IPC: 2.12579 cumulative IPC: 2.12514 (Simulation time: 0 hr 36 min 32 sec) 
Heartbeat CPU 0 instructions: 530000000 cycles: 228848087 heartbeat IPC: 2.12766 cumulative IPC: 2.12522 (Simulation time: 0 hr 37 min 16 sec) 
Heartbeat CPU 0 instructions: 540000003 cycles: 233550561 heartbeat IPC: 2.12654 cumulative IPC: 2.12525 (Simulation time: 0 hr 38 min 0 sec) 
Heartbeat CPU 0 instructions: 550000002 cycles: 238249912 heartbeat IPC: 2.12795 cumulative IPC: 2.12533 (Simulation time: 0 hr 38 min 44 sec) 
Heartbeat CPU 0 instructions: 560000002 cycles: 242952679 heartbeat IPC: 2.12641 cumulative IPC: 2.12536 (Simulation time: 0 hr 39 min 28 sec) 
Heartbeat CPU 0 instructions: 570000001 cycles: 247657274 heartbeat IPC: 2.12558 cumulative IPC: 2.12537 (Simulation time: 0 hr 40 min 11 sec) 
Heartbeat CPU 0 instructions: 580000004 cycles: 252365391 heartbeat IPC: 2.12399 cumulative IPC: 2.12533 (Simulation time: 0 hr 40 min 55 sec) 
Heartbeat CPU 0 instructions: 590000001 cycles: 257066760 heartbeat IPC: 2.12704 cumulative IPC: 2.12538 (Simulation time: 0 hr 41 min 39 sec) 
Heartbeat CPU 0 instructions: 600000004 cycles: 261775791 heartbeat IPC: 2.12358 cumulative IPC: 2.12533 (Simulation time: 0 hr 42 min 23 sec) 
Heartbeat CPU 0 instructions: 610000001 cycles: 266477483 heartbeat IPC: 2.12689 cumulative IPC: 2.12537 (Simulation time: 0 hr 43 min 6 sec) 
Heartbeat CPU 0 instructions: 620000002 cycles: 271183713 heartbeat IPC: 2.12484 cumulative IPC: 2.12536 (Simulation time: 0 hr 43 min 50 sec) 
Heartbeat CPU 0 instructions: 630000002 cycles: 275889545 heartbeat IPC: 2.12502 cumulative IPC: 2.12535 (Simulation time: 0 hr 44 min 35 sec) 
Heartbeat CPU 0 instructions: 640000002 cycles: 280593319 heartbeat IPC: 2.12595 cumulative IPC: 2.12536 (Simulation time: 0 hr 45 min 18 sec) 
Heartbeat CPU 0 instructions: 650000000 cycles: 285290593 heartbeat IPC: 2.12889 cumulative IPC: 2.12544 (Simulation time: 0 hr 46 min 2 sec) 
Heartbeat CPU 0 instructions: 660000001 cycles: 290015830 heartbeat IPC: 2.1163 cumulative IPC: 2.12524 (Simulation time: 0 hr 46 min 45 sec) 
Heartbeat CPU 0 instructions: 670000000 cycles: 294717537 heartbeat IPC: 2.12689 cumulative IPC: 2.12528 (Simulation time: 0 hr 47 min 29 sec) 
Heartbeat CPU 0 instructions: 680000001 cycles: 299417148 heartbeat IPC: 2.12784 cumulative IPC: 2.12533 (Simulation time: 0 hr 48 min 13 sec) 
Heartbeat CPU 0 instructions: 690000004 cycles: 304119013 heartbeat IPC: 2.12682 cumulative IPC: 2.12536 (Simulation time: 0 hr 48 min 56 sec) 
Heartbeat CPU 0 instructions: 700000001 cycles: 308821916 heartbeat IPC: 2.12635 cumulative IPC: 2.12538 (Simulation time: 0 hr 49 min 40 sec) 
Finished CPU 0 instructions: 500000004 cycles: 235252176 cumulative IPC: 2.12538 (Simulation time: 0 hr 49 min 40 sec) 

ChampSim completed all CPUs

Region of Interest Statistics

CPU 0 cumulative IPC: 2.12538 instructions: 500000004 cycles: 235252176
cpu0_L1I TOTAL     ACCESS:   49368279  HIT:   49368279  MISS:          0
cpu0_L1I LOAD      ACCESS:   49368279  HIT:   49368279  MISS:          0
cpu0_L1I RFO       ACCESS:          0  HIT:          0  MISS:          0
cpu0_L1I PREFETCH  ACCESS:          0  HIT:          0  MISS:          0
cpu0_L1I WRITEBACK ACCESS:          0  HIT:          0  MISS:          0
cpu0_L1I TRANSLATION ACCESS:          0  HIT:          0  MISS:          0
cpu0_L1I PREFETCH  REQUESTED:          0  ISSUED:          0  USEFUL:          0  USELESS:          0
cpu0_L1I AVERAGE MISS LATENCY: -nan cycles
cpu0_DTLB TOTAL     ACCESS:  132390953  HIT:  125728278  MISS:    6662675
cpu0_DTLB LOAD      ACCESS:  114036040  HIT:  108141392  MISS:    5894648
cpu0_DTLB RFO       ACCESS:   18354913  HIT:   17586886  MISS:     768027
cpu0_DTLB PREFETCH  ACCESS:          0  HIT:          0  MISS:          0
cpu0_DTLB WRITEBACK ACCESS:          0  HIT:          0  MISS:          0
cpu0_DTLB TRANSLATION ACCESS:          0  HIT:          0  MISS:          0
cpu0_DTLB PREFETCH  REQUESTED:          0  ISSUED:          0  USEFUL:          0  USELESS:          0
cpu0_DTLB AVERAGE MISS LATENCY: 9.55147 cycles
cpu0_ITLB TOTAL     ACCESS:    9763662  HIT:    9763662  MISS:          0
cpu0_ITLB LOAD      ACCESS:    9763662  HIT:    9763662  MISS:          0
cpu0_ITLB RFO       ACCESS:          0  HIT:          0  MISS:          0
cpu0_ITLB PREFETCH  ACCESS:          0  HIT:          0  MISS:          0
cpu0_ITLB WRITEBACK ACCESS:          0  HIT:          0  MISS:          0
cpu0_ITLB TRANSLATION ACCESS:          0  HIT:          0  MISS:          0
cpu0_ITLB PREFETCH  REQUESTED:          0  ISSUED:          0  USEFUL:          0  USELESS:          0
cpu0_ITLB AVERAGE MISS LATENCY: -nan cycles
cpu0_STLB TOTAL     ACCESS:    6662675  HIT:    6653144  MISS:       9531
cpu0_STLB LOAD      ACCESS:    5894648  HIT:    5889767  MISS:       4881
cpu0_STLB RFO       ACCESS:     768027  HIT:     763377  MISS:       4650
cpu0_STLB PREFETCH  ACCESS:          0  HIT:          0  MISS:          0
cpu0_STLB WRITEBACK ACCESS:          0  HIT:          0  MISS:          0
cpu0_STLB TRANSLATION ACCESS:          0  HIT:          0  MISS:          0
cpu0_STLB PREFETCH  REQUESTED:          0  ISSUED:          0  USEFUL:          0  USELESS:          0
cpu0_STLB AVERAGE MISS LATENCY: 266.75 cycles
cpu0_L1D TOTAL     ACCESS:  186464315  HIT:  185148447  MISS:    1315868
cpu0_L1D LOAD      ACCESS:  146754055  HIT:  145730858  MISS:    1023197
cpu0_L1D RFO       ACCESS:   39700737  HIT:   39408068  MISS:     292669
cpu0_L1D PREFETCH  ACCESS:          0  HIT:          0  MISS:          0
cpu0_L1D WRITEBACK ACCESS:          0  HIT:          0  MISS:          0
cpu0_L1D TRANSLATION ACCESS:       9523  HIT:       9521  MISS:          2
cpu0_L1D PREFETCH  REQUESTED:          0  ISSUED:          0  USEFUL:          0  USELESS:          0
cpu0_L1D AVERAGE MISS LATENCY: 603.662 cycles
cpu0_L2C TOTAL     ACCESS:    1608005  HIT:    1006083  MISS:     601922
cpu0_L2C LOAD      ACCESS:    1023197  HIT:     713946  MISS:     309251
cpu0_L2C RFO       ACCESS:     292669  HIT:          0  MISS:     292669
cpu0_L2C PREFETCH  ACCESS:          0  HIT:          0  MISS:          0
cpu0_L2C WRITEBACK ACCESS:     292137  HIT:     292137  MISS:          0
cpu0_L2C TRANSLATION ACCESS:          2  HIT:          0  MISS:          2
cpu0_L2C PREFETCH  REQUESTED:          0  ISSUED:          0  USEFUL:          0  USELESS:          0
cpu0_L2C AVERAGE MISS LATENCY: 1294.77 cycles
LLC TOTAL     ACCESS:     965165  HIT:     304288  MISS:     660877
LLC LOAD      ACCESS:     309251  HIT:     304080  MISS:       5171
LLC RFO       ACCESS:     292669  HIT:          0  MISS:     292669
LLC PREFETCH  ACCESS:     309218  HIT:        208  MISS:     309010
LLC WRITEBACK ACCESS:      54025  HIT:          0  MISS:      54025
LLC TRANSLATION ACCESS:          2  HIT:          0  MISS:          2
LLC PREFETCH  REQUESTED:     309251  ISSUED:     309251  USEFUL:     304080  USELESS:       5056
LLC AVERAGE MISS LATENCY: 1913.79 cycles

DRAM Statistics
 CHANNEL 0
 RQ ROW_BUFFER_HIT:          1  ROW_BUFFER_MISS:     606851
 DBUS AVG_CONGESTED_CYCLE:    3.99905
 WQ ROW_BUFFER_HIT:        158  ROW_BUFFER_MISS:      46851  FULL:          0


CPU 0 Branch Prediction Accuracy: 99.9752% MPKI: 0.002194 Average ROB Occupancy at Mispredict: 311.761
Branch type MPKI
BRANCH_DIRECT_JUMP: 0
BRANCH_INDIRECT: 0
BRANCH_CONDITIONAL: 0.002194
BRANCH_DIRECT_CALL: 0
BRANCH_INDIRECT_CALL: 0
BRANCH_RETURN: 0

