/home/caslab/workspace/sim/ChampSim/bin/champsim --warmup_instructions 200000000 --simulation_instructions 500000000/ /home/caslab/workspace/sim/traces/speccpu_by_champsim619.lbm_s-2676B.champsimtrace.xz
start simulation for 619.lbm_s-2676B.champsimtrace.xz

*** ChampSim Multicore Out-of-Order Simulator ***

Warmup Instructions: 200000000
Simulation Instructions: 500000000
Number of CPUs: 1
Off-chip DRAM Size: 4 GiB Channels: 1 Width: 64-bit Data Rate: 3200 MT/s

VirtualMemory physical capacity: 8588881920 num_ppages: 2096895
VirtualMemory page size: 4096 log2_page_size: 12

CPU 0 runs /home/caslab/workspace/sim/traces/speccpu_by_champsim/619.lbm_s-2676B.champsimtrace.xz
CPU 0 Bimodal branch predictor
Basic BTB sets: 1024 ways: 8 indirect buffer size: 4096 RAS size: 64
LLC next line prefetcher
WARNING: The extended signature CACHE::prefetch_line(ip, base_addr, pf_addr, fill_this_level, prefetch_metadata) is deprecated.
WARNING: Use CACHE::prefetch_line(pf_addr, fill_this_level, prefetch_metadata) instead.
Heartbeat CPU 0 instructions: 10000002 cycles: 2564977 heartbeat IPC: 3.89867 cumulative IPC: 3.89867 (Simulation time: 0 hr 0 min 24 sec) 
Heartbeat CPU 0 instructions: 20000000 cycles: 5126710 heartbeat IPC: 3.90361 cumulative IPC: 3.90114 (Simulation time: 0 hr 0 min 47 sec) 
Heartbeat CPU 0 instructions: 30000001 cycles: 7684758 heartbeat IPC: 3.90923 cumulative IPC: 3.90383 (Simulation time: 0 hr 1 min 10 sec) 
Heartbeat CPU 0 instructions: 40000001 cycles: 10235551 heartbeat IPC: 3.92035 cumulative IPC: 3.90795 (Simulation time: 0 hr 1 min 33 sec) 
Heartbeat CPU 0 instructions: 50000002 cycles: 12780271 heartbeat IPC: 3.92971 cumulative IPC: 3.91228 (Simulation time: 0 hr 1 min 55 sec) 
Heartbeat CPU 0 instructions: 60000002 cycles: 15318898 heartbeat IPC: 3.93914 cumulative IPC: 3.91673 (Simulation time: 0 hr 2 min 16 sec) 
Heartbeat CPU 0 instructions: 70000003 cycles: 17852722 heartbeat IPC: 3.9466 cumulative IPC: 3.92097 (Simulation time: 0 hr 2 min 38 sec) 
Heartbeat CPU 0 instructions: 80000002 cycles: 20380814 heartbeat IPC: 3.95555 cumulative IPC: 3.92526 (Simulation time: 0 hr 2 min 59 sec) 
Heartbeat CPU 0 instructions: 90000003 cycles: 22908599 heartbeat IPC: 3.95603 cumulative IPC: 3.92866 (Simulation time: 0 hr 3 min 20 sec) 
Heartbeat CPU 0 instructions: 100000003 cycles: 25429798 heartbeat IPC: 3.96637 cumulative IPC: 3.93239 (Simulation time: 0 hr 3 min 41 sec) 
Heartbeat CPU 0 instructions: 110000003 cycles: 27949711 heartbeat IPC: 3.96839 cumulative IPC: 3.93564 (Simulation time: 0 hr 4 min 2 sec) 
Heartbeat CPU 0 instructions: 120000000 cycles: 30464215 heartbeat IPC: 3.97693 cumulative IPC: 3.93905 (Simulation time: 0 hr 4 min 22 sec) 
Heartbeat CPU 0 instructions: 130000000 cycles: 32976524 heartbeat IPC: 3.9804 cumulative IPC: 3.9422 (Simulation time: 0 hr 4 min 42 sec) 
Heartbeat CPU 0 instructions: 140000002 cycles: 35489437 heartbeat IPC: 3.97945 cumulative IPC: 3.94484 (Simulation time: 0 hr 5 min 2 sec) 
Heartbeat CPU 0 instructions: 150000002 cycles: 37998062 heartbeat IPC: 3.98625 cumulative IPC: 3.94757 (Simulation time: 0 hr 5 min 22 sec) 
Heartbeat CPU 0 instructions: 160000001 cycles: 40505466 heartbeat IPC: 3.98819 cumulative IPC: 3.95008 (Simulation time: 0 hr 5 min 42 sec) 
Heartbeat CPU 0 instructions: 170000001 cycles: 43011652 heartbeat IPC: 3.99013 cumulative IPC: 3.95242 (Simulation time: 0 hr 6 min 2 sec) 
Heartbeat CPU 0 instructions: 180000001 cycles: 45519793 heartbeat IPC: 3.98702 cumulative IPC: 3.95432 (Simulation time: 0 hr 6 min 21 sec) 
Heartbeat CPU 0 instructions: 190000000 cycles: 48026560 heartbeat IPC: 3.9892 cumulative IPC: 3.95614 (Simulation time: 0 hr 6 min 42 sec) 
Heartbeat CPU 0 instructions: 200000000 cycles: 50529530 heartbeat IPC: 3.99525 cumulative IPC: 3.95808 (Simulation time: 0 hr 7 min 1 sec) 

Warmup complete CPU 0 instructions: 200000005 cycles: 50529531 (Simulation time: 0 hr 7 min 1 sec) 

Heartbeat CPU 0 instructions: 210000001 cycles: 61081180 heartbeat IPC: 0.947719 cumulative IPC: 0.947719 (Simulation time: 0 hr 7 min 49 sec) 
Heartbeat CPU 0 instructions: 220000004 cycles: 71725285 heartbeat IPC: 0.939487 cumulative IPC: 0.943585 (Simulation time: 0 hr 8 min 38 sec) 
Heartbeat CPU 0 instructions: 230000003 cycles: 82308207 heartbeat IPC: 0.944919 cumulative IPC: 0.944029 (Simulation time: 0 hr 9 min 26 sec) 
Heartbeat CPU 0 instructions: 240000002 cycles: 92961238 heartbeat IPC: 0.9387 cumulative IPC: 0.942691 (Simulation time: 0 hr 10 min 14 sec) 
Heartbeat CPU 0 instructions: 250000001 cycles: 103490968 heartbeat IPC: 0.949692 cumulative IPC: 0.944083 (Simulation time: 0 hr 11 min 2 sec) 
Heartbeat CPU 0 instructions: 260000004 cycles: 113982590 heartbeat IPC: 0.953142 cumulative IPC: 0.945581 (Simulation time: 0 hr 11 min 50 sec) 
Heartbeat CPU 0 instructions: 270000004 cycles: 124382534 heartbeat IPC: 0.961544 cumulative IPC: 0.947829 (Simulation time: 0 hr 12 min 38 sec) 
Heartbeat CPU 0 instructions: 280000003 cycles: 134849030 heartbeat IPC: 0.955429 cumulative IPC: 0.948772 (Simulation time: 0 hr 13 min 26 sec) 
Heartbeat CPU 0 instructions: 290000000 cycles: 145205990 heartbeat IPC: 0.965534 cumulative IPC: 0.950606 (Simulation time: 0 hr 14 min 13 sec) 
Heartbeat CPU 0 instructions: 300000004 cycles: 155664547 heartbeat IPC: 0.956155 cumulative IPC: 0.951158 (Simulation time: 0 hr 15 min 0 sec) 
Heartbeat CPU 0 instructions: 310000004 cycles: 165949933 heartbeat IPC: 0.972253 cumulative IPC: 0.953038 (Simulation time: 0 hr 15 min 47 sec) 
Heartbeat CPU 0 instructions: 320000000 cycles: 176448000 heartbeat IPC: 0.952556 cumulative IPC: 0.952998 (Simulation time: 0 hr 16 min 35 sec) 
Heartbeat CPU 0 instructions: 330000003 cycles: 186805197 heartbeat IPC: 0.965512 cumulative IPC: 0.953949 (Simulation time: 0 hr 17 min 23 sec) 
Heartbeat CPU 0 instructions: 340000001 cycles: 197229424 heartbeat IPC: 0.959304 cumulative IPC: 0.954329 (Simulation time: 0 hr 18 min 10 sec) 
Heartbeat CPU 0 instructions: 350000003 cycles: 207511638 heartbeat IPC: 0.972553 cumulative IPC: 0.955523 (Simulation time: 0 hr 18 min 57 sec) 
Heartbeat CPU 0 instructions: 360000004 cycles: 217973422 heartbeat IPC: 0.95586 cumulative IPC: 0.955544 (Simulation time: 0 hr 19 min 45 sec) 
Heartbeat CPU 0 instructions: 370000000 cycles: 228305970 heartbeat IPC: 0.967815 cumulative IPC: 0.956257 (Simulation time: 0 hr 20 min 32 sec) 
Heartbeat CPU 0 instructions: 380000002 cycles: 238551527 heartbeat IPC: 0.976033 cumulative IPC: 0.957335 (Simulation time: 0 hr 21 min 19 sec) 
Heartbeat CPU 0 instructions: 390000003 cycles: 248853865 heartbeat IPC: 0.970654 cumulative IPC: 0.958027 (Simulation time: 0 hr 22 min 6 sec) 
Heartbeat CPU 0 instructions: 400000000 cycles: 259079223 heartbeat IPC: 0.977961 cumulative IPC: 0.959004 (Simulation time: 0 hr 22 min 53 sec) 
Heartbeat CPU 0 instructions: 410000001 cycles: 269523824 heartbeat IPC: 0.957433 cumulative IPC: 0.958929 (Simulation time: 0 hr 23 min 40 sec) 
Heartbeat CPU 0 instructions: 420000003 cycles: 279847183 heartbeat IPC: 0.968677 cumulative IPC: 0.959368 (Simulation time: 0 hr 24 min 27 sec) 
Heartbeat CPU 0 instructions: 430000004 cycles: 290270932 heartbeat IPC: 0.959348 cumulative IPC: 0.959367 (Simulation time: 0 hr 25 min 15 sec) 
Heartbeat CPU 0 instructions: 440000004 cycles: 300559899 heartbeat IPC: 0.971915 cumulative IPC: 0.959883 (Simulation time: 0 hr 26 min 2 sec) 
Heartbeat CPU 0 instructions: 450000002 cycles: 311082996 heartbeat IPC: 0.95029 cumulative IPC: 0.959496 (Simulation time: 0 hr 26 min 50 sec) 
Heartbeat CPU 0 instructions: 460000004 cycles: 321310725 heartbeat IPC: 0.977734 cumulative IPC: 0.960185 (Simulation time: 0 hr 27 min 36 sec) 
Heartbeat CPU 0 instructions: 470000003 cycles: 331693591 heartbeat IPC: 0.963125 cumulative IPC: 0.960293 (Simulation time: 0 hr 28 min 24 sec) 
Heartbeat CPU 0 instructions: 480000001 cycles: 341933742 heartbeat IPC: 0.976548 cumulative IPC: 0.960865 (Simulation time: 0 hr 29 min 11 sec) 
Heartbeat CPU 0 instructions: 490000004 cycles: 353949310 heartbeat IPC: 0.832254 cumulative IPC: 0.955772 (Simulation time: 0 hr 30 min 2 sec) 
Heartbeat CPU 0 instructions: 500000001 cycles: 373524738 heartbeat IPC: 0.510844 cumulative IPC: 0.928806 (Simulation time: 0 hr 31 min 32 sec) 
Heartbeat CPU 0 instructions: 510000002 cycles: 417271690 heartbeat IPC: 0.228587 cumulative IPC: 0.845281 (Simulation time: 0 hr 34 min 49 sec) 
Heartbeat CPU 0 instructions: 520000000 cycles: 429747795 heartbeat IPC: 0.801532 cumulative IPC: 0.843841 (Simulation time: 0 hr 35 min 41 sec) 
Heartbeat CPU 0 instructions: 530000002 cycles: 440556688 heartbeat IPC: 0.925164 cumulative IPC: 0.846095 (Simulation time: 0 hr 36 min 30 sec) 
Heartbeat CPU 0 instructions: 540000003 cycles: 451611111 heartbeat IPC: 0.904615 cumulative IPC: 0.847708 (Simulation time: 0 hr 37 min 20 sec) 
Heartbeat CPU 0 instructions: 550000002 cycles: 462535902 heartbeat IPC: 0.915349 cumulative IPC: 0.849501 (Simulation time: 0 hr 38 min 9 sec) 
Heartbeat CPU 0 instructions: 560000001 cycles: 473398760 heartbeat IPC: 0.920568 cumulative IPC: 0.851327 (Simulation time: 0 hr 38 min 58 sec) 
Heartbeat CPU 0 instructions: 570000003 cycles: 483990866 heartbeat IPC: 0.944099 cumulative IPC: 0.853594 (Simulation time: 0 hr 39 min 46 sec) 
Heartbeat CPU 0 instructions: 580000004 cycles: 494756455 heartbeat IPC: 0.928886 cumulative IPC: 0.855419 (Simulation time: 0 hr 40 min 35 sec) 
Heartbeat CPU 0 instructions: 590000003 cycles: 505262090 heartbeat IPC: 0.95187 cumulative IPC: 0.857647 (Simulation time: 0 hr 41 min 22 sec) 
Heartbeat CPU 0 instructions: 600000002 cycles: 515701347 heartbeat IPC: 0.957922 cumulative IPC: 0.859897 (Simulation time: 0 hr 42 min 10 sec) 
Heartbeat CPU 0 instructions: 610000001 cycles: 526094824 heartbeat IPC: 0.962142 cumulative IPC: 0.862132 (Simulation time: 0 hr 42 min 57 sec) 
Heartbeat CPU 0 instructions: 620000000 cycles: 536441421 heartbeat IPC: 0.966501 cumulative IPC: 0.864354 (Simulation time: 0 hr 43 min 44 sec) 
Heartbeat CPU 0 instructions: 630000002 cycles: 546751270 heartbeat IPC: 0.969947 cumulative IPC: 0.866548 (Simulation time: 0 hr 44 min 31 sec) 
Heartbeat CPU 0 instructions: 640000000 cycles: 557172571 heartbeat IPC: 0.959573 cumulative IPC: 0.868462 (Simulation time: 0 hr 45 min 19 sec) 
Heartbeat CPU 0 instructions: 650000004 cycles: 567480340 heartbeat IPC: 0.970142 cumulative IPC: 0.870489 (Simulation time: 0 hr 46 min 6 sec) 
Heartbeat CPU 0 instructions: 660000000 cycles: 577764868 heartbeat IPC: 0.972334 cumulative IPC: 0.872476 (Simulation time: 0 hr 46 min 53 sec) 
Heartbeat CPU 0 instructions: 670000002 cycles: 588280594 heartbeat IPC: 0.950957 cumulative IPC: 0.87401 (Simulation time: 0 hr 47 min 41 sec) 
Heartbeat CPU 0 instructions: 680000002 cycles: 599151443 heartbeat IPC: 0.919891 cumulative IPC: 0.874919 (Simulation time: 0 hr 48 min 30 sec) 
Heartbeat CPU 0 instructions: 690000002 cycles: 610769030 heartbeat IPC: 0.860764 cumulative IPC: 0.874626 (Simulation time: 0 hr 49 min 23 sec) 
Heartbeat CPU 0 instructions: 700000004 cycles: 623229167 heartbeat IPC: 0.80256 cumulative IPC: 0.873058 (Simulation time: 0 hr 50 min 18 sec) 
Finished CPU 0 instructions: 500000004 cycles: 572699637 cumulative IPC: 0.873058 (Simulation time: 0 hr 50 min 18 sec) 

ChampSim completed all CPUs

Region of Interest Statistics

CPU 0 cumulative IPC: 0.873058 instructions: 500000004 cycles: 572699637
cpu0_L1I TOTAL     ACCESS:    9862590  HIT:    9862587  MISS:          3
cpu0_L1I LOAD      ACCESS:    9862590  HIT:    9862587  MISS:          3
cpu0_L1I RFO       ACCESS:          0  HIT:          0  MISS:          0
cpu0_L1I PREFETCH  ACCESS:          0  HIT:          0  MISS:          0
cpu0_L1I WRITEBACK ACCESS:          0  HIT:          0  MISS:          0
cpu0_L1I TRANSLATION ACCESS:          0  HIT:          0  MISS:          0
cpu0_L1I PREFETCH  REQUESTED:          0  ISSUED:          0  USEFUL:          0  USELESS:          0
cpu0_L1I AVERAGE MISS LATENCY: 340 cycles
cpu0_DTLB TOTAL     ACCESS:   72211726  HIT:   72027779  MISS:     183947
cpu0_DTLB LOAD      ACCESS:   37529621  HIT:   37483644  MISS:      45977
cpu0_DTLB RFO       ACCESS:   34682105  HIT:   34544135  MISS:     137970
cpu0_DTLB PREFETCH  ACCESS:          0  HIT:          0  MISS:          0
cpu0_DTLB WRITEBACK ACCESS:          0  HIT:          0  MISS:          0
cpu0_DTLB TRANSLATION ACCESS:          0  HIT:          0  MISS:          0
cpu0_DTLB PREFETCH  REQUESTED:          0  ISSUED:          0  USEFUL:          0  USELESS:          0
cpu0_DTLB AVERAGE MISS LATENCY: 196.668 cycles
cpu0_ITLB TOTAL     ACCESS:    2707408  HIT:    2707407  MISS:          1
cpu0_ITLB LOAD      ACCESS:    2707408  HIT:    2707407  MISS:          1
cpu0_ITLB RFO       ACCESS:          0  HIT:          0  MISS:          0
cpu0_ITLB PREFETCH  ACCESS:          0  HIT:          0  MISS:          0
cpu0_ITLB WRITEBACK ACCESS:          0  HIT:          0  MISS:          0
cpu0_ITLB TRANSLATION ACCESS:          0  HIT:          0  MISS:          0
cpu0_ITLB PREFETCH  REQUESTED:          0  ISSUED:          0  USEFUL:          0  USELESS:          0
cpu0_ITLB AVERAGE MISS LATENCY: 1438 cycles
cpu0_STLB TOTAL     ACCESS:     183948  HIT:      88855  MISS:      95093
cpu0_STLB LOAD      ACCESS:      45978  HIT:          0  MISS:      45978
cpu0_STLB RFO       ACCESS:     137970  HIT:      88855  MISS:      49115
cpu0_STLB PREFETCH  ACCESS:          0  HIT:          0  MISS:          0
cpu0_STLB WRITEBACK ACCESS:          0  HIT:          0  MISS:          0
cpu0_STLB TRANSLATION ACCESS:          0  HIT:          0  MISS:          0
cpu0_STLB PREFETCH  REQUESTED:          0  ISSUED:          0  USEFUL:          0  USELESS:          0
cpu0_STLB AVERAGE MISS LATENCY: 362.992 cycles
cpu0_L1D TOTAL     ACCESS:  105091884  HIT:   93321169  MISS:   11770715
cpu0_L1D LOAD      ACCESS:   29109816  HIT:   26167516  MISS:    2942300
cpu0_L1D RFO       ACCESS:   75887871  HIT:   67059486  MISS:    8828385
cpu0_L1D PREFETCH  ACCESS:          0  HIT:          0  MISS:          0
cpu0_L1D WRITEBACK ACCESS:          0  HIT:          0  MISS:          0
cpu0_L1D TRANSLATION ACCESS:      94197  HIT:      94167  MISS:         30
cpu0_L1D PREFETCH  REQUESTED:          0  ISSUED:          0  USEFUL:          0  USELESS:          0
cpu0_L1D AVERAGE MISS LATENCY: 201.15 cycles
cpu0_L2C TOTAL     ACCESS:   20598863  HIT:   14511338  MISS:    6087525
cpu0_L2C LOAD      ACCESS:    2942303  HIT:          1  MISS:    2942302
cpu0_L2C RFO       ACCESS:    8828385  HIT:    5683196  MISS:    3145189
cpu0_L2C PREFETCH  ACCESS:          0  HIT:          0  MISS:          0
cpu0_L2C WRITEBACK ACCESS:    8828145  HIT:    8828140  MISS:          5
cpu0_L2C TRANSLATION ACCESS:         30  HIT:          1  MISS:         29
cpu0_L2C PREFETCH  REQUESTED:          0  ISSUED:          0  USEFUL:          0  USELESS:          0
cpu0_L2C AVERAGE MISS LATENCY: 367.653 cycles
LLC TOTAL     ACCESS:    9935794  HIT:     657950  MISS:    9277844
LLC LOAD      ACCESS:    2942302  HIT:     650955  MISS:    2291347
LLC RFO       ACCESS:    3145189  HIT:       1727  MISS:    3143462
LLC PREFETCH  ACCESS:     702183  HIT:       5265  MISS:     696918
LLC WRITEBACK ACCESS:    3146091  HIT:          3  MISS:    3146088
LLC TRANSLATION ACCESS:         29  HIT:          0  MISS:         29
LLC PREFETCH  REQUESTED:    2942302  ISSUED:    2942302  USEFUL:    1169562  USELESS:      45952
LLC AVERAGE MISS LATENCY: 242.781 cycles

DRAM Statistics
 CHANNEL 0
 RQ ROW_BUFFER_HIT:     161235  ROW_BUFFER_MISS:    5970521
 DBUS AVG_CONGESTED_CYCLE:    3.98481
 WQ ROW_BUFFER_HIT:     182206  ROW_BUFFER_MISS:    2963922  FULL:          0


CPU 0 Branch Prediction Accuracy: 99.4952% MPKI: 0.059202 Average ROB Occupancy at Mispredict: 181.359
Branch type MPKI
BRANCH_DIRECT_JUMP: 6e-06
BRANCH_INDIRECT: 0
BRANCH_CONDITIONAL: 0.059188
BRANCH_DIRECT_CALL: 4e-06
BRANCH_INDIRECT_CALL: 0
BRANCH_RETURN: 4e-06

