/home/caslab/workspace/sim/ChampSim/bin/champsim --warmup_instructions 200000000 --simulation_instructions 500000000/ /home/caslab/workspace/sim/traces/speccpu_by_champsim620.omnetpp_s-874B.champsimtrace.xz
start simulation for 620.omnetpp_s-874B.champsimtrace.xz

*** ChampSim Multicore Out-of-Order Simulator ***

Warmup Instructions: 200000000
Simulation Instructions: 500000000
Number of CPUs: 1
Off-chip DRAM Size: 4 GiB Channels: 1 Width: 64-bit Data Rate: 3200 MT/s

VirtualMemory physical capacity: 8588881920 num_ppages: 2096895
VirtualMemory page size: 4096 log2_page_size: 12

CPU 0 runs /home/caslab/workspace/sim/traces/speccpu_by_champsim/620.omnetpp_s-874B.champsimtrace.xz
CPU 0 Bimodal branch predictor
Basic BTB sets: 1024 ways: 8 indirect buffer size: 4096 RAS size: 64
LLC next line prefetcher
WARNING: The extended signature CACHE::prefetch_line(ip, base_addr, pf_addr, fill_this_level, prefetch_metadata) is deprecated.
WARNING: Use CACHE::prefetch_line(pf_addr, fill_this_level, prefetch_metadata) instead.
Heartbeat CPU 0 instructions: 10000001 cycles: 2502919 heartbeat IPC: 3.99534 cumulative IPC: 3.99534 (Simulation time: 0 hr 0 min 24 sec) 
Heartbeat CPU 0 instructions: 20000000 cycles: 5005260 heartbeat IPC: 3.99626 cumulative IPC: 3.9958 (Simulation time: 0 hr 0 min 48 sec) 
Heartbeat CPU 0 instructions: 30000001 cycles: 7507998 heartbeat IPC: 3.99562 cumulative IPC: 3.99574 (Simulation time: 0 hr 1 min 12 sec) 
Heartbeat CPU 0 instructions: 40000002 cycles: 10011143 heartbeat IPC: 3.99497 cumulative IPC: 3.99555 (Simulation time: 0 hr 1 min 36 sec) 
Heartbeat CPU 0 instructions: 50000002 cycles: 12514658 heartbeat IPC: 3.99438 cumulative IPC: 3.99532 (Simulation time: 0 hr 1 min 59 sec) 
Heartbeat CPU 0 instructions: 60000001 cycles: 15018230 heartbeat IPC: 3.99429 cumulative IPC: 3.99514 (Simulation time: 0 hr 2 min 23 sec) 
Heartbeat CPU 0 instructions: 70000000 cycles: 17520961 heartbeat IPC: 3.99563 cumulative IPC: 3.99521 (Simulation time: 0 hr 2 min 47 sec) 
Heartbeat CPU 0 instructions: 80000002 cycles: 20024017 heartbeat IPC: 3.99512 cumulative IPC: 3.9952 (Simulation time: 0 hr 3 min 11 sec) 
Heartbeat CPU 0 instructions: 90000000 cycles: 22528851 heartbeat IPC: 3.99228 cumulative IPC: 3.99488 (Simulation time: 0 hr 3 min 35 sec) 
Heartbeat CPU 0 instructions: 100000000 cycles: 25032524 heartbeat IPC: 3.99413 cumulative IPC: 3.9948 (Simulation time: 0 hr 3 min 58 sec) 
Heartbeat CPU 0 instructions: 110000003 cycles: 27536340 heartbeat IPC: 3.9939 cumulative IPC: 3.99472 (Simulation time: 0 hr 4 min 22 sec) 
Heartbeat CPU 0 instructions: 120000004 cycles: 30039935 heartbeat IPC: 3.99426 cumulative IPC: 3.99468 (Simulation time: 0 hr 4 min 46 sec) 
Heartbeat CPU 0 instructions: 130000002 cycles: 32543174 heartbeat IPC: 3.99482 cumulative IPC: 3.99469 (Simulation time: 0 hr 5 min 9 sec) 
Heartbeat CPU 0 instructions: 140000001 cycles: 35046094 heartbeat IPC: 3.99533 cumulative IPC: 3.99474 (Simulation time: 0 hr 5 min 33 sec) 
Heartbeat CPU 0 instructions: 150000001 cycles: 37549573 heartbeat IPC: 3.99444 cumulative IPC: 3.99472 (Simulation time: 0 hr 5 min 56 sec) 
Heartbeat CPU 0 instructions: 160000003 cycles: 40053495 heartbeat IPC: 3.99374 cumulative IPC: 3.99466 (Simulation time: 0 hr 6 min 20 sec) 
Heartbeat CPU 0 instructions: 170000003 cycles: 42557239 heartbeat IPC: 3.99402 cumulative IPC: 3.99462 (Simulation time: 0 hr 6 min 44 sec) 
Heartbeat CPU 0 instructions: 180000003 cycles: 45060201 heartbeat IPC: 3.99527 cumulative IPC: 3.99466 (Simulation time: 0 hr 7 min 7 sec) 
Heartbeat CPU 0 instructions: 190000001 cycles: 47563749 heartbeat IPC: 3.99433 cumulative IPC: 3.99464 (Simulation time: 0 hr 7 min 31 sec) 
Heartbeat CPU 0 instructions: 200000001 cycles: 50066774 heartbeat IPC: 3.99517 cumulative IPC: 3.99467 (Simulation time: 0 hr 7 min 54 sec) 

Warmup complete CPU 0 instructions: 200000001 cycles: 50066774 (Simulation time: 0 hr 7 min 54 sec) 

Heartbeat CPU 0 instructions: 210000000 cycles: 58982986 heartbeat IPC: 1.12155 cumulative IPC: 1.12155 (Simulation time: 0 hr 8 min 23 sec) 
Heartbeat CPU 0 instructions: 220000000 cycles: 67911195 heartbeat IPC: 1.12005 cumulative IPC: 1.1208 (Simulation time: 0 hr 8 min 52 sec) 
Heartbeat CPU 0 instructions: 230000004 cycles: 76878149 heartbeat IPC: 1.11521 cumulative IPC: 1.11893 (Simulation time: 0 hr 9 min 20 sec) 
Heartbeat CPU 0 instructions: 240000002 cycles: 85763113 heartbeat IPC: 1.1255 cumulative IPC: 1.12056 (Simulation time: 0 hr 9 min 49 sec) 
Heartbeat CPU 0 instructions: 250000001 cycles: 94654721 heartbeat IPC: 1.12466 cumulative IPC: 1.12138 (Simulation time: 0 hr 10 min 18 sec) 
Heartbeat CPU 0 instructions: 260000004 cycles: 103608455 heartbeat IPC: 1.11685 cumulative IPC: 1.12062 (Simulation time: 0 hr 10 min 47 sec) 
Heartbeat CPU 0 instructions: 270000002 cycles: 112561079 heartbeat IPC: 1.11699 cumulative IPC: 1.1201 (Simulation time: 0 hr 11 min 16 sec) 
Heartbeat CPU 0 instructions: 280000002 cycles: 121460188 heartbeat IPC: 1.12371 cumulative IPC: 1.12055 (Simulation time: 0 hr 11 min 44 sec) 
Heartbeat CPU 0 instructions: 290000001 cycles: 130440204 heartbeat IPC: 1.11358 cumulative IPC: 1.11977 (Simulation time: 0 hr 12 min 13 sec) 
Heartbeat CPU 0 instructions: 300000003 cycles: 139421279 heartbeat IPC: 1.11345 cumulative IPC: 1.11914 (Simulation time: 0 hr 12 min 41 sec) 
Heartbeat CPU 0 instructions: 310000000 cycles: 148351524 heartbeat IPC: 1.11979 cumulative IPC: 1.1192 (Simulation time: 0 hr 13 min 10 sec) 
Heartbeat CPU 0 instructions: 320000003 cycles: 157325388 heartbeat IPC: 1.11435 cumulative IPC: 1.11879 (Simulation time: 0 hr 13 min 39 sec) 
Heartbeat CPU 0 instructions: 330000004 cycles: 166179703 heartbeat IPC: 1.12939 cumulative IPC: 1.1196 (Simulation time: 0 hr 14 min 7 sec) 
Heartbeat CPU 0 instructions: 340000000 cycles: 175138362 heartbeat IPC: 1.11624 cumulative IPC: 1.11936 (Simulation time: 0 hr 14 min 36 sec) 
Heartbeat CPU 0 instructions: 350000002 cycles: 184099904 heartbeat IPC: 1.11588 cumulative IPC: 1.11913 (Simulation time: 0 hr 15 min 4 sec) 
Heartbeat CPU 0 instructions: 360000004 cycles: 193028506 heartbeat IPC: 1.12 cumulative IPC: 1.11918 (Simulation time: 0 hr 15 min 33 sec) 
Heartbeat CPU 0 instructions: 370000003 cycles: 201881914 heartbeat IPC: 1.12951 cumulative IPC: 1.11978 (Simulation time: 0 hr 16 min 1 sec) 
Heartbeat CPU 0 instructions: 380000000 cycles: 210822102 heartbeat IPC: 1.11854 cumulative IPC: 1.11971 (Simulation time: 0 hr 16 min 30 sec) 
Heartbeat CPU 0 instructions: 390000003 cycles: 219689395 heartbeat IPC: 1.12774 cumulative IPC: 1.12013 (Simulation time: 0 hr 16 min 59 sec) 
Heartbeat CPU 0 instructions: 400000000 cycles: 228644429 heartbeat IPC: 1.11669 cumulative IPC: 1.11996 (Simulation time: 0 hr 17 min 27 sec) 
Heartbeat CPU 0 instructions: 410000001 cycles: 237711269 heartbeat IPC: 1.10292 cumulative IPC: 1.11914 (Simulation time: 0 hr 17 min 57 sec) 
Heartbeat CPU 0 instructions: 420000003 cycles: 246653353 heartbeat IPC: 1.11831 cumulative IPC: 1.1191 (Simulation time: 0 hr 18 min 25 sec) 
Heartbeat CPU 0 instructions: 430000001 cycles: 255569126 heartbeat IPC: 1.12161 cumulative IPC: 1.11921 (Simulation time: 0 hr 18 min 54 sec) 
Heartbeat CPU 0 instructions: 440000001 cycles: 264541699 heartbeat IPC: 1.11451 cumulative IPC: 1.11901 (Simulation time: 0 hr 19 min 22 sec) 
Heartbeat CPU 0 instructions: 450000004 cycles: 273444264 heartbeat IPC: 1.12327 cumulative IPC: 1.11918 (Simulation time: 0 hr 19 min 51 sec) 
Heartbeat CPU 0 instructions: 460000004 cycles: 282313976 heartbeat IPC: 1.12743 cumulative IPC: 1.1195 (Simulation time: 0 hr 20 min 19 sec) 
Heartbeat CPU 0 instructions: 470000001 cycles: 291200763 heartbeat IPC: 1.12527 cumulative IPC: 1.11971 (Simulation time: 0 hr 20 min 48 sec) 
Heartbeat CPU 0 instructions: 480000002 cycles: 300028119 heartbeat IPC: 1.13284 cumulative IPC: 1.12017 (Simulation time: 0 hr 21 min 16 sec) 
Heartbeat CPU 0 instructions: 490000004 cycles: 308931689 heartbeat IPC: 1.12315 cumulative IPC: 1.12028 (Simulation time: 0 hr 21 min 45 sec) 
Heartbeat CPU 0 instructions: 500000000 cycles: 317935181 heartbeat IPC: 1.11068 cumulative IPC: 1.11995 (Simulation time: 0 hr 22 min 14 sec) 
Heartbeat CPU 0 instructions: 510000003 cycles: 326829997 heartbeat IPC: 1.12425 cumulative IPC: 1.12009 (Simulation time: 0 hr 22 min 42 sec) 
Heartbeat CPU 0 instructions: 520000004 cycles: 335766659 heartbeat IPC: 1.11899 cumulative IPC: 1.12006 (Simulation time: 0 hr 23 min 11 sec) 
Heartbeat CPU 0 instructions: 530000003 cycles: 344707624 heartbeat IPC: 1.11845 cumulative IPC: 1.12001 (Simulation time: 0 hr 23 min 39 sec) 
Heartbeat CPU 0 instructions: 540000004 cycles: 353534892 heartbeat IPC: 1.13285 cumulative IPC: 1.12038 (Simulation time: 0 hr 24 min 8 sec) 
Heartbeat CPU 0 instructions: 550000001 cycles: 362468806 heartbeat IPC: 1.11933 cumulative IPC: 1.12035 (Simulation time: 0 hr 24 min 37 sec) 
Heartbeat CPU 0 instructions: 560000004 cycles: 372021631 heartbeat IPC: 1.04681 cumulative IPC: 1.11817 (Simulation time: 0 hr 25 min 6 sec) 
Heartbeat CPU 0 instructions: 570000003 cycles: 381229435 heartbeat IPC: 1.08604 cumulative IPC: 1.11728 (Simulation time: 0 hr 25 min 35 sec) 
Heartbeat CPU 0 instructions: 580000001 cycles: 390278427 heartbeat IPC: 1.1051 cumulative IPC: 1.11695 (Simulation time: 0 hr 26 min 3 sec) 
Heartbeat CPU 0 instructions: 590000004 cycles: 399280965 heartbeat IPC: 1.1108 cumulative IPC: 1.11679 (Simulation time: 0 hr 26 min 32 sec) 
Heartbeat CPU 0 instructions: 600000001 cycles: 408279581 heartbeat IPC: 1.11128 cumulative IPC: 1.11665 (Simulation time: 0 hr 27 min 0 sec) 
Heartbeat CPU 0 instructions: 610000000 cycles: 417264444 heartbeat IPC: 1.11298 cumulative IPC: 1.11656 (Simulation time: 0 hr 27 min 29 sec) 
Heartbeat CPU 0 instructions: 620000000 cycles: 426407532 heartbeat IPC: 1.09372 cumulative IPC: 1.11601 (Simulation time: 0 hr 27 min 59 sec) 
Heartbeat CPU 0 instructions: 630000001 cycles: 435336648 heartbeat IPC: 1.11993 cumulative IPC: 1.1161 (Simulation time: 0 hr 28 min 27 sec) 
Heartbeat CPU 0 instructions: 640000001 cycles: 444260458 heartbeat IPC: 1.1206 cumulative IPC: 1.1162 (Simulation time: 0 hr 28 min 56 sec) 
Heartbeat CPU 0 instructions: 650000003 cycles: 453147650 heartbeat IPC: 1.12522 cumulative IPC: 1.1164 (Simulation time: 0 hr 29 min 25 sec) 
Heartbeat CPU 0 instructions: 660000000 cycles: 461992708 heartbeat IPC: 1.13057 cumulative IPC: 1.11671 (Simulation time: 0 hr 29 min 54 sec) 
Heartbeat CPU 0 instructions: 670000000 cycles: 470905272 heartbeat IPC: 1.12201 cumulative IPC: 1.11682 (Simulation time: 0 hr 30 min 23 sec) 
Heartbeat CPU 0 instructions: 680000002 cycles: 479850200 heartbeat IPC: 1.11795 cumulative IPC: 1.11684 (Simulation time: 0 hr 30 min 51 sec) 
Heartbeat CPU 0 instructions: 690000002 cycles: 488840109 heartbeat IPC: 1.11236 cumulative IPC: 1.11675 (Simulation time: 0 hr 31 min 21 sec) 
Heartbeat CPU 0 instructions: 700000000 cycles: 497835642 heartbeat IPC: 1.11166 cumulative IPC: 1.11665 (Simulation time: 0 hr 31 min 50 sec) 
Finished CPU 0 instructions: 500000000 cycles: 447768869 cumulative IPC: 1.11665 (Simulation time: 0 hr 31 min 50 sec) 

ChampSim completed all CPUs

Region of Interest Statistics

CPU 0 cumulative IPC: 1.11665 instructions: 500000000 cycles: 447768869
cpu0_L1I TOTAL     ACCESS:   44942510  HIT:   44942498  MISS:         12
cpu0_L1I LOAD      ACCESS:   44942510  HIT:   44942498  MISS:         12
cpu0_L1I RFO       ACCESS:          0  HIT:          0  MISS:          0
cpu0_L1I PREFETCH  ACCESS:          0  HIT:          0  MISS:          0
cpu0_L1I WRITEBACK ACCESS:          0  HIT:          0  MISS:          0
cpu0_L1I TRANSLATION ACCESS:          0  HIT:          0  MISS:          0
cpu0_L1I PREFETCH  REQUESTED:          0  ISSUED:          0  USEFUL:          0  USELESS:          0
cpu0_L1I AVERAGE MISS LATENCY: 181.417 cycles
cpu0_DTLB TOTAL     ACCESS:  125625277  HIT:  122106717  MISS:    3518560
cpu0_DTLB LOAD      ACCESS:   80060815  HIT:   77147126  MISS:    2913689
cpu0_DTLB RFO       ACCESS:   45564462  HIT:   44959591  MISS:     604871
cpu0_DTLB PREFETCH  ACCESS:          0  HIT:          0  MISS:          0
cpu0_DTLB WRITEBACK ACCESS:          0  HIT:          0  MISS:          0
cpu0_DTLB TRANSLATION ACCESS:          0  HIT:          0  MISS:          0
cpu0_DTLB PREFETCH  REQUESTED:          0  ISSUED:          0  USEFUL:          0  USELESS:          0
cpu0_DTLB AVERAGE MISS LATENCY: 11.1308 cycles
cpu0_ITLB TOTAL     ACCESS:   49088792  HIT:   49088792  MISS:          0
cpu0_ITLB LOAD      ACCESS:   49088792  HIT:   49088792  MISS:          0
cpu0_ITLB RFO       ACCESS:          0  HIT:          0  MISS:          0
cpu0_ITLB PREFETCH  ACCESS:          0  HIT:          0  MISS:          0
cpu0_ITLB WRITEBACK ACCESS:          0  HIT:          0  MISS:          0
cpu0_ITLB TRANSLATION ACCESS:          0  HIT:          0  MISS:          0
cpu0_ITLB PREFETCH  REQUESTED:          0  ISSUED:          0  USEFUL:          0  USELESS:          0
cpu0_ITLB AVERAGE MISS LATENCY: -nan cycles
cpu0_STLB TOTAL     ACCESS:    3518560  HIT:    2669224  MISS:     849336
cpu0_STLB LOAD      ACCESS:    2913689  HIT:    2168830  MISS:     744859
cpu0_STLB RFO       ACCESS:     604871  HIT:     500394  MISS:     104477
cpu0_STLB PREFETCH  ACCESS:          0  HIT:          0  MISS:          0
cpu0_STLB WRITEBACK ACCESS:          0  HIT:          0  MISS:          0
cpu0_STLB TRANSLATION ACCESS:          0  HIT:          0  MISS:          0
cpu0_STLB PREFETCH  REQUESTED:          0  ISSUED:          0  USEFUL:          0  USELESS:          0
cpu0_STLB AVERAGE MISS LATENCY: 8.80722 cycles
cpu0_L1D TOTAL     ACCESS:  178368064  HIT:  174218798  MISS:    4149266
cpu0_L1D LOAD      ACCESS:   87661737  HIT:   83877194  MISS:    3784543
cpu0_L1D RFO       ACCESS:   89865398  HIT:   89500746  MISS:     364652
cpu0_L1D PREFETCH  ACCESS:          0  HIT:          0  MISS:          0
cpu0_L1D WRITEBACK ACCESS:          0  HIT:          0  MISS:          0
cpu0_L1D TRANSLATION ACCESS:     840929  HIT:     840858  MISS:         71
cpu0_L1D PREFETCH  REQUESTED:          0  ISSUED:          0  USEFUL:          0  USELESS:          0
cpu0_L1D AVERAGE MISS LATENCY: 12.8372 cycles
cpu0_L2C TOTAL     ACCESS:    6100854  HIT:    6052443  MISS:      48411
cpu0_L2C LOAD      ACCESS:    3784555  HIT:    3742911  MISS:      41644
cpu0_L2C RFO       ACCESS:     364652  HIT:     357890  MISS:       6762
cpu0_L2C PREFETCH  ACCESS:          0  HIT:          0  MISS:          0
cpu0_L2C WRITEBACK ACCESS:    1951576  HIT:    1951571  MISS:          5
cpu0_L2C TRANSLATION ACCESS:         71  HIT:         71  MISS:          0
cpu0_L2C PREFETCH  REQUESTED:          0  ISSUED:          0  USEFUL:          0  USELESS:          0
cpu0_L2C AVERAGE MISS LATENCY: 149.245 cycles
LLC TOTAL     ACCESS:      80405  HIT:      14613  MISS:      65792
LLC LOAD      ACCESS:      41644  HIT:       9461  MISS:      32183
LLC RFO       ACCESS:       6762  HIT:        935  MISS:       5827
LLC PREFETCH  ACCESS:      31584  HIT:       4086  MISS:      27498
LLC WRITEBACK ACCESS:        415  HIT:        131  MISS:        284
LLC TRANSLATION ACCESS:          0  HIT:          0  MISS:          0
LLC PREFETCH  REQUESTED:      41644  ISSUED:      41644  USEFUL:      11910  USELESS:      19931
LLC AVERAGE MISS LATENCY: 160.34 cycles

DRAM Statistics
 CHANNEL 0
 RQ ROW_BUFFER_HIT:       3607  ROW_BUFFER_MISS:      61901
 DBUS AVG_CONGESTED_CYCLE:    3.76427
 WQ ROW_BUFFER_HIT:         17  ROW_BUFFER_MISS:        253  FULL:          0


CPU 0 Branch Prediction Accuracy: 95.4993% MPKI: 9.35721 Average ROB Occupancy at Mispredict: 63.16
Branch type MPKI
BRANCH_DIRECT_JUMP: 2.2e-05
BRANCH_INDIRECT: 0.123202
BRANCH_CONDITIONAL: 8.68352
BRANCH_DIRECT_CALL: 1e-05
BRANCH_INDIRECT_CALL: 0.15584
BRANCH_RETURN: 0.394608

