/home/caslab/workspace/sim/ChampSim/bin/champsim --warmup_instructions 200000000 --simulation_instructions 500000000/ /home/caslab/workspace/sim/traces/speccpu_by_champsim620.omnetpp_s-141B.champsimtrace.xz
start simulation for 620.omnetpp_s-141B.champsimtrace.xz

*** ChampSim Multicore Out-of-Order Simulator ***

Warmup Instructions: 200000000
Simulation Instructions: 500000000
Number of CPUs: 1
Off-chip DRAM Size: 4 GiB Channels: 1 Width: 64-bit Data Rate: 3200 MT/s

VirtualMemory physical capacity: 8588881920 num_ppages: 2096895
VirtualMemory page size: 4096 log2_page_size: 12

CPU 0 runs /home/caslab/workspace/sim/traces/speccpu_by_champsim/620.omnetpp_s-141B.champsimtrace.xz
CPU 0 Bimodal branch predictor
Basic BTB sets: 1024 ways: 8 indirect buffer size: 4096 RAS size: 64
LLC next line prefetcher
WARNING: The extended signature CACHE::prefetch_line(ip, base_addr, pf_addr, fill_this_level, prefetch_metadata) is deprecated.
WARNING: Use CACHE::prefetch_line(pf_addr, fill_this_level, prefetch_metadata) instead.
Heartbeat CPU 0 instructions: 10000000 cycles: 2504760 heartbeat IPC: 3.9924 cumulative IPC: 3.9924 (Simulation time: 0 hr 0 min 26 sec) 
Heartbeat CPU 0 instructions: 20000000 cycles: 5009857 heartbeat IPC: 3.99186 cumulative IPC: 3.99213 (Simulation time: 0 hr 0 min 50 sec) 
Heartbeat CPU 0 instructions: 30000001 cycles: 7514812 heartbeat IPC: 3.99209 cumulative IPC: 3.99212 (Simulation time: 0 hr 1 min 15 sec) 
Heartbeat CPU 0 instructions: 40000000 cycles: 10019376 heartbeat IPC: 3.99271 cumulative IPC: 3.99226 (Simulation time: 0 hr 1 min 39 sec) 
Heartbeat CPU 0 instructions: 50000001 cycles: 12525665 heartbeat IPC: 3.98996 cumulative IPC: 3.9918 (Simulation time: 0 hr 2 min 3 sec) 
Heartbeat CPU 0 instructions: 60000003 cycles: 15030388 heartbeat IPC: 3.99246 cumulative IPC: 3.99191 (Simulation time: 0 hr 2 min 27 sec) 
Heartbeat CPU 0 instructions: 70000001 cycles: 17535243 heartbeat IPC: 3.99225 cumulative IPC: 3.99196 (Simulation time: 0 hr 2 min 51 sec) 
Heartbeat CPU 0 instructions: 80000002 cycles: 20040448 heartbeat IPC: 3.99169 cumulative IPC: 3.99193 (Simulation time: 0 hr 3 min 15 sec) 
Heartbeat CPU 0 instructions: 90000003 cycles: 22544501 heartbeat IPC: 3.99353 cumulative IPC: 3.9921 (Simulation time: 0 hr 3 min 39 sec) 
Heartbeat CPU 0 instructions: 100000002 cycles: 25049262 heartbeat IPC: 3.9924 cumulative IPC: 3.99213 (Simulation time: 0 hr 4 min 3 sec) 
Heartbeat CPU 0 instructions: 110000002 cycles: 27553510 heartbeat IPC: 3.99321 cumulative IPC: 3.99223 (Simulation time: 0 hr 4 min 27 sec) 
Heartbeat CPU 0 instructions: 120000002 cycles: 30057723 heartbeat IPC: 3.99327 cumulative IPC: 3.99232 (Simulation time: 0 hr 4 min 51 sec) 
Heartbeat CPU 0 instructions: 130000000 cycles: 32562347 heartbeat IPC: 3.99261 cumulative IPC: 3.99234 (Simulation time: 0 hr 5 min 16 sec) 
Heartbeat CPU 0 instructions: 140000001 cycles: 35067133 heartbeat IPC: 3.99236 cumulative IPC: 3.99234 (Simulation time: 0 hr 5 min 40 sec) 
Heartbeat CPU 0 instructions: 150000000 cycles: 37571473 heartbeat IPC: 3.99307 cumulative IPC: 3.99239 (Simulation time: 0 hr 6 min 4 sec) 
Heartbeat CPU 0 instructions: 160000001 cycles: 40076012 heartbeat IPC: 3.99275 cumulative IPC: 3.99241 (Simulation time: 0 hr 6 min 28 sec) 
Heartbeat CPU 0 instructions: 170000001 cycles: 42581373 heartbeat IPC: 3.99144 cumulative IPC: 3.99236 (Simulation time: 0 hr 6 min 53 sec) 
Heartbeat CPU 0 instructions: 180000000 cycles: 45085954 heartbeat IPC: 3.99268 cumulative IPC: 3.99237 (Simulation time: 0 hr 7 min 17 sec) 
Heartbeat CPU 0 instructions: 190000001 cycles: 47590523 heartbeat IPC: 3.9927 cumulative IPC: 3.99239 (Simulation time: 0 hr 7 min 41 sec) 
Heartbeat CPU 0 instructions: 200000003 cycles: 50095181 heartbeat IPC: 3.99256 cumulative IPC: 3.9924 (Simulation time: 0 hr 8 min 5 sec) 

Warmup complete CPU 0 instructions: 200000003 cycles: 50095181 (Simulation time: 0 hr 8 min 5 sec) 

Heartbeat CPU 0 instructions: 210000003 cycles: 60069871 heartbeat IPC: 1.00254 cumulative IPC: 1.00254 (Simulation time: 0 hr 8 min 34 sec) 
Heartbeat CPU 0 instructions: 220000002 cycles: 70169251 heartbeat IPC: 0.99016 cumulative IPC: 0.99631 (Simulation time: 0 hr 9 min 4 sec) 
Heartbeat CPU 0 instructions: 230000000 cycles: 80412748 heartbeat IPC: 0.976229 cumulative IPC: 0.989525 (Simulation time: 0 hr 9 min 32 sec) 
Heartbeat CPU 0 instructions: 240000000 cycles: 90618442 heartbeat IPC: 0.979845 cumulative IPC: 0.987087 (Simulation time: 0 hr 10 min 2 sec) 
Heartbeat CPU 0 instructions: 250000001 cycles: 100631535 heartbeat IPC: 0.998693 cumulative IPC: 0.989387 (Simulation time: 0 hr 10 min 31 sec) 
Heartbeat CPU 0 instructions: 260000000 cycles: 110640286 heartbeat IPC: 0.999126 cumulative IPC: 0.990997 (Simulation time: 0 hr 10 min 59 sec) 
Heartbeat CPU 0 instructions: 270000002 cycles: 120866522 heartbeat IPC: 0.977877 cumulative IPC: 0.989101 (Simulation time: 0 hr 11 min 28 sec) 
Heartbeat CPU 0 instructions: 280000001 cycles: 131210395 heartbeat IPC: 0.966756 cumulative IPC: 0.986251 (Simulation time: 0 hr 11 min 58 sec) 
Heartbeat CPU 0 instructions: 290000001 cycles: 141285538 heartbeat IPC: 0.992542 cumulative IPC: 0.986946 (Simulation time: 0 hr 12 min 27 sec) 
Heartbeat CPU 0 instructions: 300000000 cycles: 151397691 heartbeat IPC: 0.988909 cumulative IPC: 0.987142 (Simulation time: 0 hr 12 min 56 sec) 
Heartbeat CPU 0 instructions: 310000001 cycles: 161614755 heartbeat IPC: 0.978755 cumulative IPC: 0.986374 (Simulation time: 0 hr 13 min 25 sec) 
Heartbeat CPU 0 instructions: 320000001 cycles: 171861872 heartbeat IPC: 0.975884 cumulative IPC: 0.985491 (Simulation time: 0 hr 13 min 54 sec) 
Heartbeat CPU 0 instructions: 330000000 cycles: 182127713 heartbeat IPC: 0.974104 cumulative IPC: 0.984606 (Simulation time: 0 hr 14 min 24 sec) 
Heartbeat CPU 0 instructions: 340000000 cycles: 192033532 heartbeat IPC: 1.00951 cumulative IPC: 0.986344 (Simulation time: 0 hr 14 min 53 sec) 
Heartbeat CPU 0 instructions: 350000002 cycles: 202292168 heartbeat IPC: 0.974789 cumulative IPC: 0.985565 (Simulation time: 0 hr 15 min 22 sec) 
Heartbeat CPU 0 instructions: 360000001 cycles: 212309531 heartbeat IPC: 0.998267 cumulative IPC: 0.986349 (Simulation time: 0 hr 15 min 51 sec) 
Heartbeat CPU 0 instructions: 370000000 cycles: 222393687 heartbeat IPC: 0.991655 cumulative IPC: 0.98666 (Simulation time: 0 hr 16 min 20 sec) 
Heartbeat CPU 0 instructions: 380000004 cycles: 232369550 heartbeat IPC: 1.00242 cumulative IPC: 0.987522 (Simulation time: 0 hr 16 min 49 sec) 
Heartbeat CPU 0 instructions: 390000000 cycles: 242408206 heartbeat IPC: 0.996149 cumulative IPC: 0.987973 (Simulation time: 0 hr 17 min 18 sec) 
Heartbeat CPU 0 instructions: 400000004 cycles: 252508764 heartbeat IPC: 0.990045 cumulative IPC: 0.988076 (Simulation time: 0 hr 17 min 47 sec) 
Heartbeat CPU 0 instructions: 410000003 cycles: 262379448 heartbeat IPC: 1.0131 cumulative IPC: 0.98924 (Simulation time: 0 hr 18 min 16 sec) 
Heartbeat CPU 0 instructions: 420000001 cycles: 272269761 heartbeat IPC: 1.01109 cumulative IPC: 0.990212 (Simulation time: 0 hr 18 min 45 sec) 
Heartbeat CPU 0 instructions: 430000001 cycles: 282338367 heartbeat IPC: 0.993186 cumulative IPC: 0.990341 (Simulation time: 0 hr 19 min 14 sec) 
Heartbeat CPU 0 instructions: 440000003 cycles: 292387346 heartbeat IPC: 0.995126 cumulative IPC: 0.99054 (Simulation time: 0 hr 19 min 42 sec) 
Heartbeat CPU 0 instructions: 450000000 cycles: 302480494 heartbeat IPC: 0.990771 cumulative IPC: 0.990549 (Simulation time: 0 hr 20 min 11 sec) 
Heartbeat CPU 0 instructions: 460000001 cycles: 312480241 heartbeat IPC: 1.00003 cumulative IPC: 0.99091 (Simulation time: 0 hr 20 min 40 sec) 
Heartbeat CPU 0 instructions: 470000002 cycles: 322587561 heartbeat IPC: 0.989382 cumulative IPC: 0.990853 (Simulation time: 0 hr 21 min 9 sec) 
Heartbeat CPU 0 instructions: 480000000 cycles: 332702308 heartbeat IPC: 0.988655 cumulative IPC: 0.990775 (Simulation time: 0 hr 21 min 38 sec) 
Heartbeat CPU 0 instructions: 490000002 cycles: 342788794 heartbeat IPC: 0.991426 cumulative IPC: 0.990797 (Simulation time: 0 hr 22 min 7 sec) 
Heartbeat CPU 0 instructions: 500000002 cycles: 352732163 heartbeat IPC: 1.0057 cumulative IPC: 0.991287 (Simulation time: 0 hr 22 min 36 sec) 
Heartbeat CPU 0 instructions: 510000001 cycles: 362667539 heartbeat IPC: 1.0065 cumulative IPC: 0.99177 (Simulation time: 0 hr 23 min 5 sec) 
Heartbeat CPU 0 instructions: 520000000 cycles: 372744909 heartbeat IPC: 0.992322 cumulative IPC: 0.991788 (Simulation time: 0 hr 23 min 34 sec) 
Heartbeat CPU 0 instructions: 530000003 cycles: 382753763 heartbeat IPC: 0.999116 cumulative IPC: 0.992008 (Simulation time: 0 hr 24 min 3 sec) 
Heartbeat CPU 0 instructions: 540000000 cycles: 392875273 heartbeat IPC: 0.987995 cumulative IPC: 0.99189 (Simulation time: 0 hr 24 min 32 sec) 
Heartbeat CPU 0 instructions: 550000004 cycles: 402972721 heartbeat IPC: 0.99035 cumulative IPC: 0.991845 (Simulation time: 0 hr 25 min 2 sec) 
Heartbeat CPU 0 instructions: 560000004 cycles: 413042338 heartbeat IPC: 0.993086 cumulative IPC: 0.99188 (Simulation time: 0 hr 25 min 30 sec) 
Heartbeat CPU 0 instructions: 570000001 cycles: 423129314 heartbeat IPC: 0.991377 cumulative IPC: 0.991866 (Simulation time: 0 hr 25 min 59 sec) 
Heartbeat CPU 0 instructions: 580000004 cycles: 433181534 heartbeat IPC: 0.994805 cumulative IPC: 0.991943 (Simulation time: 0 hr 26 min 28 sec) 
Heartbeat CPU 0 instructions: 590000001 cycles: 443235261 heartbeat IPC: 0.994656 cumulative IPC: 0.992013 (Simulation time: 0 hr 26 min 57 sec) 
Heartbeat CPU 0 instructions: 600000001 cycles: 453228001 heartbeat IPC: 1.00073 cumulative IPC: 0.992229 (Simulation time: 0 hr 27 min 26 sec) 
Heartbeat CPU 0 instructions: 610000002 cycles: 463083191 heartbeat IPC: 1.01469 cumulative IPC: 0.992765 (Simulation time: 0 hr 27 min 55 sec) 
Heartbeat CPU 0 instructions: 620000000 cycles: 473265755 heartbeat IPC: 0.982071 cumulative IPC: 0.992508 (Simulation time: 0 hr 28 min 23 sec) 
Heartbeat CPU 0 instructions: 630000003 cycles: 483267781 heartbeat IPC: 0.999798 cumulative IPC: 0.992676 (Simulation time: 0 hr 28 min 52 sec) 
Heartbeat CPU 0 instructions: 640000000 cycles: 493379556 heartbeat IPC: 0.988946 cumulative IPC: 0.992591 (Simulation time: 0 hr 29 min 21 sec) 
Heartbeat CPU 0 instructions: 650000001 cycles: 503418403 heartbeat IPC: 0.99613 cumulative IPC: 0.992669 (Simulation time: 0 hr 29 min 49 sec) 
Heartbeat CPU 0 instructions: 660000000 cycles: 513497278 heartbeat IPC: 0.992174 cumulative IPC: 0.992658 (Simulation time: 0 hr 30 min 18 sec) 
Heartbeat CPU 0 instructions: 670000000 cycles: 523493026 heartbeat IPC: 1.00043 cumulative IPC: 0.992822 (Simulation time: 0 hr 30 min 46 sec) 
Heartbeat CPU 0 instructions: 680000004 cycles: 533448969 heartbeat IPC: 1.00443 cumulative IPC: 0.993061 (Simulation time: 0 hr 31 min 15 sec) 
Heartbeat CPU 0 instructions: 690000000 cycles: 543360797 heartbeat IPC: 1.0089 cumulative IPC: 0.99338 (Simulation time: 0 hr 31 min 43 sec) 
Heartbeat CPU 0 instructions: 700000004 cycles: 553251604 heartbeat IPC: 1.01104 cumulative IPC: 0.993727 (Simulation time: 0 hr 32 min 12 sec) 
Finished CPU 0 instructions: 500000001 cycles: 503156423 cumulative IPC: 0.993727 (Simulation time: 0 hr 32 min 12 sec) 

ChampSim completed all CPUs

Region of Interest Statistics

CPU 0 cumulative IPC: 0.993727 instructions: 500000001 cycles: 503156423
cpu0_L1I TOTAL     ACCESS:   46480458  HIT:   46480457  MISS:          1
cpu0_L1I LOAD      ACCESS:   46480458  HIT:   46480457  MISS:          1
cpu0_L1I RFO       ACCESS:          0  HIT:          0  MISS:          0
cpu0_L1I PREFETCH  ACCESS:          0  HIT:          0  MISS:          0
cpu0_L1I WRITEBACK ACCESS:          0  HIT:          0  MISS:          0
cpu0_L1I TRANSLATION ACCESS:          0  HIT:          0  MISS:          0
cpu0_L1I PREFETCH  REQUESTED:          0  ISSUED:          0  USEFUL:          0  USELESS:          0
cpu0_L1I AVERAGE MISS LATENCY: 194 cycles
cpu0_DTLB TOTAL     ACCESS:  129463553  HIT:  125402461  MISS:    4061092
cpu0_DTLB LOAD      ACCESS:   83432477  HIT:   80057789  MISS:    3374688
cpu0_DTLB RFO       ACCESS:   46031076  HIT:   45344672  MISS:     686404
cpu0_DTLB PREFETCH  ACCESS:          0  HIT:          0  MISS:          0
cpu0_DTLB WRITEBACK ACCESS:          0  HIT:          0  MISS:          0
cpu0_DTLB TRANSLATION ACCESS:          0  HIT:          0  MISS:          0
cpu0_DTLB PREFETCH  REQUESTED:          0  ISSUED:          0  USEFUL:          0  USELESS:          0
cpu0_DTLB AVERAGE MISS LATENCY: 11.3178 cycles
cpu0_ITLB TOTAL     ACCESS:   51953788  HIT:   51953788  MISS:          0
cpu0_ITLB LOAD      ACCESS:   51953788  HIT:   51953788  MISS:          0
cpu0_ITLB RFO       ACCESS:          0  HIT:          0  MISS:          0
cpu0_ITLB PREFETCH  ACCESS:          0  HIT:          0  MISS:          0
cpu0_ITLB WRITEBACK ACCESS:          0  HIT:          0  MISS:          0
cpu0_ITLB TRANSLATION ACCESS:          0  HIT:          0  MISS:          0
cpu0_ITLB PREFETCH  REQUESTED:          0  ISSUED:          0  USEFUL:          0  USELESS:          0
cpu0_ITLB AVERAGE MISS LATENCY: -nan cycles
cpu0_STLB TOTAL     ACCESS:    4061092  HIT:    2957127  MISS:    1103965
cpu0_STLB LOAD      ACCESS:    3374688  HIT:    2455442  MISS:     919246
cpu0_STLB RFO       ACCESS:     686404  HIT:     501685  MISS:     184719
cpu0_STLB PREFETCH  ACCESS:          0  HIT:          0  MISS:          0
cpu0_STLB WRITEBACK ACCESS:          0  HIT:          0  MISS:          0
cpu0_STLB TRANSLATION ACCESS:          0  HIT:          0  MISS:          0
cpu0_STLB PREFETCH  REQUESTED:          0  ISSUED:          0  USEFUL:          0  USELESS:          0
cpu0_STLB AVERAGE MISS LATENCY: 8.50689 cycles
cpu0_L1D TOTAL     ACCESS:  181153248  HIT:  176236487  MISS:    4916761
cpu0_L1D LOAD      ACCESS:   90660508  HIT:   86254568  MISS:    4405940
cpu0_L1D RFO       ACCESS:   89398648  HIT:   88887911  MISS:     510737
cpu0_L1D PREFETCH  ACCESS:          0  HIT:          0  MISS:          0
cpu0_L1D WRITEBACK ACCESS:          0  HIT:          0  MISS:          0
cpu0_L1D TRANSLATION ACCESS:    1094092  HIT:    1094008  MISS:         84
cpu0_L1D PREFETCH  REQUESTED:          0  ISSUED:          0  USEFUL:          0  USELESS:          0
cpu0_L1D AVERAGE MISS LATENCY: 16.3631 cycles
cpu0_L2C TOTAL     ACCESS:    7199401  HIT:    7033856  MISS:     165545
cpu0_L2C LOAD      ACCESS:    4405941  HIT:    4257563  MISS:     148378
cpu0_L2C RFO       ACCESS:     510737  HIT:     493571  MISS:      17166
cpu0_L2C PREFETCH  ACCESS:          0  HIT:          0  MISS:          0
cpu0_L2C WRITEBACK ACCESS:    2282639  HIT:    2282638  MISS:          1
cpu0_L2C TRANSLATION ACCESS:         84  HIT:         84  MISS:          0
cpu0_L2C PREFETCH  REQUESTED:          0  ISSUED:          0  USEFUL:          0  USELESS:          0
cpu0_L2C AVERAGE MISS LATENCY: 156.273 cycles
LLC TOTAL     ACCESS:     273184  HIT:      36819  MISS:     236365
LLC LOAD      ACCESS:     148378  HIT:      27657  MISS:     120721
LLC RFO       ACCESS:      17166  HIT:        549  MISS:      16617
LLC PREFETCH  ACCESS:     103753  HIT:       8588  MISS:      95165
LLC WRITEBACK ACCESS:       3887  HIT:         25  MISS:       3862
LLC TRANSLATION ACCESS:          0  HIT:          0  MISS:          0
LLC PREFETCH  REQUESTED:     148378  ISSUED:     148378  USEFUL:      39681  USELESS:      67508
LLC AVERAGE MISS LATENCY: 153.708 cycles

DRAM Statistics
 CHANNEL 0
 RQ ROW_BUFFER_HIT:       2471  ROW_BUFFER_MISS:     230032
 DBUS AVG_CONGESTED_CYCLE:    3.65457
 WQ ROW_BUFFER_HIT:        259  ROW_BUFFER_MISS:       2524  FULL:          0


CPU 0 Branch Prediction Accuracy: 94.2866% MPKI: 11.9962 Average ROB Occupancy at Mispredict: 49.028
Branch type MPKI
BRANCH_DIRECT_JUMP: 8e-06
BRANCH_INDIRECT: 0.356724
BRANCH_CONDITIONAL: 10.9334
BRANCH_DIRECT_CALL: 4e-06
BRANCH_INDIRECT_CALL: 0.277812
BRANCH_RETURN: 0.428176

