/home/caslab/workspace/sim/ChampSim/bin/champsim --warmup_instructions 200000000 --simulation_instructions 500000000/ /home/caslab/workspace/sim/traces/speccpu_by_champsim623.xalancbmk_s-592B.champsimtrace.xz
start simulation for 623.xalancbmk_s-592B.champsimtrace.xz

*** ChampSim Multicore Out-of-Order Simulator ***

Warmup Instructions: 200000000
Simulation Instructions: 500000000
Number of CPUs: 1
Off-chip DRAM Size: 4 GiB Channels: 1 Width: 64-bit Data Rate: 3200 MT/s

VirtualMemory physical capacity: 8588881920 num_ppages: 2096895
VirtualMemory page size: 4096 log2_page_size: 12

CPU 0 runs /home/caslab/workspace/sim/traces/speccpu_by_champsim/623.xalancbmk_s-592B.champsimtrace.xz
CPU 0 Bimodal branch predictor
Basic BTB sets: 1024 ways: 8 indirect buffer size: 4096 RAS size: 64
LLC next line prefetcher
WARNING: The extended signature CACHE::prefetch_line(ip, base_addr, pf_addr, fill_this_level, prefetch_metadata) is deprecated.
WARNING: Use CACHE::prefetch_line(pf_addr, fill_this_level, prefetch_metadata) instead.
Heartbeat CPU 0 instructions: 10000003 cycles: 3151757 heartbeat IPC: 3.17283 cumulative IPC: 3.17283 (Simulation time: 0 hr 0 min 27 sec) 
Heartbeat CPU 0 instructions: 20000004 cycles: 6396127 heartbeat IPC: 3.08226 cumulative IPC: 3.12689 (Simulation time: 0 hr 0 min 55 sec) 
Heartbeat CPU 0 instructions: 30000003 cycles: 9364057 heartbeat IPC: 3.36935 cumulative IPC: 3.20374 (Simulation time: 0 hr 1 min 21 sec) 
Heartbeat CPU 0 instructions: 40000003 cycles: 12070956 heartbeat IPC: 3.69426 cumulative IPC: 3.31374 (Simulation time: 0 hr 1 min 45 sec) 
Heartbeat CPU 0 instructions: 50000001 cycles: 14810462 heartbeat IPC: 3.65029 cumulative IPC: 3.37599 (Simulation time: 0 hr 2 min 9 sec) 
Heartbeat CPU 0 instructions: 60000002 cycles: 17583550 heartbeat IPC: 3.60609 cumulative IPC: 3.41228 (Simulation time: 0 hr 2 min 33 sec) 
Heartbeat CPU 0 instructions: 70000001 cycles: 20388504 heartbeat IPC: 3.56512 cumulative IPC: 3.43331 (Simulation time: 0 hr 2 min 58 sec) 
Heartbeat CPU 0 instructions: 80000003 cycles: 23387012 heartbeat IPC: 3.33499 cumulative IPC: 3.4207 (Simulation time: 0 hr 3 min 23 sec) 
Heartbeat CPU 0 instructions: 90000000 cycles: 26486939 heartbeat IPC: 3.22588 cumulative IPC: 3.3979 (Simulation time: 0 hr 3 min 50 sec) 
Heartbeat CPU 0 instructions: 100000000 cycles: 29639336 heartbeat IPC: 3.17219 cumulative IPC: 3.37389 (Simulation time: 0 hr 4 min 17 sec) 
Heartbeat CPU 0 instructions: 110000000 cycles: 32823888 heartbeat IPC: 3.14016 cumulative IPC: 3.35122 (Simulation time: 0 hr 4 min 44 sec) 
Heartbeat CPU 0 instructions: 120000004 cycles: 35531405 heartbeat IPC: 3.69342 cumulative IPC: 3.37729 (Simulation time: 0 hr 5 min 9 sec) 
Heartbeat CPU 0 instructions: 130000003 cycles: 38274033 heartbeat IPC: 3.64614 cumulative IPC: 3.39656 (Simulation time: 0 hr 5 min 34 sec) 
Heartbeat CPU 0 instructions: 140000003 cycles: 41055047 heartbeat IPC: 3.59581 cumulative IPC: 3.41006 (Simulation time: 0 hr 5 min 58 sec) 
Heartbeat CPU 0 instructions: 150000000 cycles: 43967740 heartbeat IPC: 3.43325 cumulative IPC: 3.41159 (Simulation time: 0 hr 6 min 23 sec) 
Heartbeat CPU 0 instructions: 160000003 cycles: 47067301 heartbeat IPC: 3.22626 cumulative IPC: 3.39939 (Simulation time: 0 hr 6 min 49 sec) 
Heartbeat CPU 0 instructions: 170000002 cycles: 50229458 heartbeat IPC: 3.1624 cumulative IPC: 3.38447 (Simulation time: 0 hr 7 min 16 sec) 
Heartbeat CPU 0 instructions: 180000001 cycles: 53229373 heartbeat IPC: 3.33343 cumulative IPC: 3.38159 (Simulation time: 0 hr 7 min 43 sec) 
Heartbeat CPU 0 instructions: 190000000 cycles: 55954820 heartbeat IPC: 3.66912 cumulative IPC: 3.3956 (Simulation time: 0 hr 8 min 6 sec) 
Heartbeat CPU 0 instructions: 200000000 cycles: 58962001 heartbeat IPC: 3.32537 cumulative IPC: 3.39202 (Simulation time: 0 hr 8 min 32 sec) 

Warmup complete CPU 0 instructions: 200000005 cycles: 58962002 (Simulation time: 0 hr 8 min 32 sec) 

Heartbeat CPU 0 instructions: 210000002 cycles: 68334835 heartbeat IPC: 1.06691 cumulative IPC: 1.06691 (Simulation time: 0 hr 9 min 3 sec) 
Heartbeat CPU 0 instructions: 220000000 cycles: 77378441 heartbeat IPC: 1.10575 cumulative IPC: 1.08599 (Simulation time: 0 hr 9 min 33 sec) 
Heartbeat CPU 0 instructions: 230000000 cycles: 85742372 heartbeat IPC: 1.19561 cumulative IPC: 1.12022 (Simulation time: 0 hr 10 min 2 sec) 
Heartbeat CPU 0 instructions: 240000000 cycles: 93743617 heartbeat IPC: 1.24981 cumulative IPC: 1.15003 (Simulation time: 0 hr 10 min 33 sec) 
Heartbeat CPU 0 instructions: 250000000 cycles: 101453219 heartbeat IPC: 1.29708 cumulative IPC: 1.17671 (Simulation time: 0 hr 11 min 5 sec) 
Heartbeat CPU 0 instructions: 260000000 cycles: 108960324 heartbeat IPC: 1.33207 cumulative IPC: 1.20004 (Simulation time: 0 hr 11 min 37 sec) 
Heartbeat CPU 0 instructions: 270000000 cycles: 116300959 heartbeat IPC: 1.36228 cumulative IPC: 1.22081 (Simulation time: 0 hr 12 min 9 sec) 
Heartbeat CPU 0 instructions: 280000002 cycles: 123488138 heartbeat IPC: 1.39137 cumulative IPC: 1.23981 (Simulation time: 0 hr 12 min 42 sec) 
Heartbeat CPU 0 instructions: 290000000 cycles: 129171777 heartbeat IPC: 1.75944 cumulative IPC: 1.28187 (Simulation time: 0 hr 13 min 16 sec) 
Heartbeat CPU 0 instructions: 300000000 cycles: 134332592 heartbeat IPC: 1.93768 cumulative IPC: 1.32678 (Simulation time: 0 hr 13 min 51 sec) 
Heartbeat CPU 0 instructions: 310000000 cycles: 139686654 heartbeat IPC: 1.86774 cumulative IPC: 1.36266 (Simulation time: 0 hr 14 min 25 sec) 
Heartbeat CPU 0 instructions: 320000000 cycles: 145369898 heartbeat IPC: 1.75956 cumulative IPC: 1.38876 (Simulation time: 0 hr 15 min 0 sec) 
Heartbeat CPU 0 instructions: 330000002 cycles: 151491105 heartbeat IPC: 1.63367 cumulative IPC: 1.40496 (Simulation time: 0 hr 15 min 34 sec) 
Heartbeat CPU 0 instructions: 340000000 cycles: 158366505 heartbeat IPC: 1.45446 cumulative IPC: 1.40839 (Simulation time: 0 hr 16 min 8 sec) 
Heartbeat CPU 0 instructions: 350000002 cycles: 166703460 heartbeat IPC: 1.19948 cumulative IPC: 1.39222 (Simulation time: 0 hr 16 min 41 sec) 
Heartbeat CPU 0 instructions: 360000004 cycles: 177310530 heartbeat IPC: 0.942768 cumulative IPC: 1.35194 (Simulation time: 0 hr 17 min 12 sec) 
Heartbeat CPU 0 instructions: 370000002 cycles: 186068651 heartbeat IPC: 1.1418 cumulative IPC: 1.33746 (Simulation time: 0 hr 17 min 42 sec) 
Heartbeat CPU 0 instructions: 380000000 cycles: 195389005 heartbeat IPC: 1.07292 cumulative IPC: 1.31939 (Simulation time: 0 hr 18 min 12 sec) 
Heartbeat CPU 0 instructions: 390000001 cycles: 204170173 heartbeat IPC: 1.1388 cumulative IPC: 1.30847 (Simulation time: 0 hr 18 min 41 sec) 
Heartbeat CPU 0 instructions: 400000004 cycles: 212371769 heartbeat IPC: 1.21928 cumulative IPC: 1.3037 (Simulation time: 0 hr 19 min 11 sec) 
Heartbeat CPU 0 instructions: 410000002 cycles: 220225798 heartbeat IPC: 1.27323 cumulative IPC: 1.30221 (Simulation time: 0 hr 19 min 41 sec) 
Heartbeat CPU 0 instructions: 420000001 cycles: 227397343 heartbeat IPC: 1.3944 cumulative IPC: 1.30614 (Simulation time: 0 hr 20 min 13 sec) 
Heartbeat CPU 0 instructions: 430000000 cycles: 232941340 heartbeat IPC: 1.80375 cumulative IPC: 1.322 (Simulation time: 0 hr 20 min 48 sec) 
Heartbeat CPU 0 instructions: 440000000 cycles: 238992846 heartbeat IPC: 1.65248 cumulative IPC: 1.3331 (Simulation time: 0 hr 21 min 23 sec) 
Heartbeat CPU 0 instructions: 450000000 cycles: 246419698 heartbeat IPC: 1.34647 cumulative IPC: 1.33363 (Simulation time: 0 hr 21 min 56 sec) 
Heartbeat CPU 0 instructions: 460000004 cycles: 255765351 heartbeat IPC: 1.07002 cumulative IPC: 1.32112 (Simulation time: 0 hr 22 min 27 sec) 
Heartbeat CPU 0 instructions: 470000001 cycles: 264634116 heartbeat IPC: 1.12755 cumulative IPC: 1.31277 (Simulation time: 0 hr 22 min 58 sec) 
Heartbeat CPU 0 instructions: 480000003 cycles: 272913033 heartbeat IPC: 1.20789 cumulative IPC: 1.30871 (Simulation time: 0 hr 23 min 29 sec) 
Heartbeat CPU 0 instructions: 490000000 cycles: 280751819 heartbeat IPC: 1.27571 cumulative IPC: 1.30754 (Simulation time: 0 hr 24 min 0 sec) 
Heartbeat CPU 0 instructions: 500000003 cycles: 288609770 heartbeat IPC: 1.2726 cumulative IPC: 1.30635 (Simulation time: 0 hr 24 min 34 sec) 
Heartbeat CPU 0 instructions: 510000000 cycles: 296189196 heartbeat IPC: 1.31936 cumulative IPC: 1.30676 (Simulation time: 0 hr 25 min 8 sec) 
Heartbeat CPU 0 instructions: 520000002 cycles: 303572140 heartbeat IPC: 1.35447 cumulative IPC: 1.3082 (Simulation time: 0 hr 25 min 43 sec) 
Heartbeat CPU 0 instructions: 530000000 cycles: 310778752 heartbeat IPC: 1.38761 cumulative IPC: 1.31048 (Simulation time: 0 hr 26 min 17 sec) 
Heartbeat CPU 0 instructions: 540000003 cycles: 317851537 heartbeat IPC: 1.41387 cumulative IPC: 1.3133 (Simulation time: 0 hr 26 min 51 sec) 
Heartbeat CPU 0 instructions: 550000000 cycles: 324775885 heartbeat IPC: 1.44418 cumulative IPC: 1.31671 (Simulation time: 0 hr 27 min 25 sec) 
Heartbeat CPU 0 instructions: 560000003 cycles: 331572374 heartbeat IPC: 1.47135 cumulative IPC: 1.32057 (Simulation time: 0 hr 28 min 0 sec) 
Heartbeat CPU 0 instructions: 570000001 cycles: 338255772 heartbeat IPC: 1.49624 cumulative IPC: 1.32477 (Simulation time: 0 hr 28 min 35 sec) 
Heartbeat CPU 0 instructions: 580000004 cycles: 344815915 heartbeat IPC: 1.52436 cumulative IPC: 1.32935 (Simulation time: 0 hr 29 min 10 sec) 
Heartbeat CPU 0 instructions: 590000001 cycles: 351263240 heartbeat IPC: 1.55103 cumulative IPC: 1.33424 (Simulation time: 0 hr 29 min 45 sec) 
Heartbeat CPU 0 instructions: 600000000 cycles: 357638365 heartbeat IPC: 1.5686 cumulative IPC: 1.33924 (Simulation time: 0 hr 30 min 20 sec) 
Heartbeat CPU 0 instructions: 610000003 cycles: 363906766 heartbeat IPC: 1.5953 cumulative IPC: 1.34451 (Simulation time: 0 hr 30 min 55 sec) 
Heartbeat CPU 0 instructions: 620000000 cycles: 370131698 heartbeat IPC: 1.60644 cumulative IPC: 1.34975 (Simulation time: 0 hr 31 min 30 sec) 
Heartbeat CPU 0 instructions: 630000000 cycles: 376296255 heartbeat IPC: 1.62218 cumulative IPC: 1.35504 (Simulation time: 0 hr 32 min 4 sec) 
Heartbeat CPU 0 instructions: 640000000 cycles: 382332306 heartbeat IPC: 1.65671 cumulative IPC: 1.36067 (Simulation time: 0 hr 32 min 39 sec) 
Heartbeat CPU 0 instructions: 650000000 cycles: 388328568 heartbeat IPC: 1.66771 cumulative IPC: 1.36626 (Simulation time: 0 hr 33 min 15 sec) 
Heartbeat CPU 0 instructions: 660000001 cycles: 392925335 heartbeat IPC: 2.17544 cumulative IPC: 1.3774 (Simulation time: 0 hr 33 min 50 sec) 
Heartbeat CPU 0 instructions: 670000001 cycles: 397304582 heartbeat IPC: 2.2835 cumulative IPC: 1.38912 (Simulation time: 0 hr 34 min 25 sec) 
Heartbeat CPU 0 instructions: 680000001 cycles: 401752798 heartbeat IPC: 2.24809 cumulative IPC: 1.40027 (Simulation time: 0 hr 35 min 0 sec) 
Heartbeat CPU 0 instructions: 690000004 cycles: 406274341 heartbeat IPC: 2.21164 cumulative IPC: 1.41083 (Simulation time: 0 hr 35 min 35 sec) 
Heartbeat CPU 0 instructions: 700000004 cycles: 410900325 heartbeat IPC: 2.1617 cumulative IPC: 1.4207 (Simulation time: 0 hr 36 min 11 sec) 
Finished CPU 0 instructions: 500000001 cycles: 351938324 cumulative IPC: 1.4207 (Simulation time: 0 hr 36 min 11 sec) 

ChampSim completed all CPUs

Region of Interest Statistics

CPU 0 cumulative IPC: 1.4207 instructions: 500000001 cycles: 351938324
cpu0_L1I TOTAL     ACCESS:   18221480  HIT:   18221475  MISS:          5
cpu0_L1I LOAD      ACCESS:   18221480  HIT:   18221475  MISS:          5
cpu0_L1I RFO       ACCESS:          0  HIT:          0  MISS:          0
cpu0_L1I PREFETCH  ACCESS:          0  HIT:          0  MISS:          0
cpu0_L1I WRITEBACK ACCESS:          0  HIT:          0  MISS:          0
cpu0_L1I TRANSLATION ACCESS:          0  HIT:          0  MISS:          0
cpu0_L1I PREFETCH  REQUESTED:          0  ISSUED:          0  USEFUL:          0  USELESS:          0
cpu0_L1I AVERAGE MISS LATENCY: 194.2 cycles
cpu0_DTLB TOTAL     ACCESS:   70211239  HIT:   64058992  MISS:    6152247
cpu0_DTLB LOAD      ACCESS:   55895332  HIT:   49820365  MISS:    6074967
cpu0_DTLB RFO       ACCESS:   14315907  HIT:   14238627  MISS:      77280
cpu0_DTLB PREFETCH  ACCESS:          0  HIT:          0  MISS:          0
cpu0_DTLB WRITEBACK ACCESS:          0  HIT:          0  MISS:          0
cpu0_DTLB TRANSLATION ACCESS:          0  HIT:          0  MISS:          0
cpu0_DTLB PREFETCH  REQUESTED:          0  ISSUED:          0  USEFUL:          0  USELESS:          0
cpu0_DTLB AVERAGE MISS LATENCY: 9.42011 cycles
cpu0_ITLB TOTAL     ACCESS:   22655132  HIT:   22655132  MISS:          0
cpu0_ITLB LOAD      ACCESS:   22655132  HIT:   22655132  MISS:          0
cpu0_ITLB RFO       ACCESS:          0  HIT:          0  MISS:          0
cpu0_ITLB PREFETCH  ACCESS:          0  HIT:          0  MISS:          0
cpu0_ITLB WRITEBACK ACCESS:          0  HIT:          0  MISS:          0
cpu0_ITLB TRANSLATION ACCESS:          0  HIT:          0  MISS:          0
cpu0_ITLB PREFETCH  REQUESTED:          0  ISSUED:          0  USEFUL:          0  USELESS:          0
cpu0_ITLB AVERAGE MISS LATENCY: -nan cycles
cpu0_STLB TOTAL     ACCESS:    6152247  HIT:    6139096  MISS:      13151
cpu0_STLB LOAD      ACCESS:    6074967  HIT:    6074162  MISS:        805
cpu0_STLB RFO       ACCESS:      77280  HIT:      64934  MISS:      12346
cpu0_STLB PREFETCH  ACCESS:          0  HIT:          0  MISS:          0
cpu0_STLB WRITEBACK ACCESS:          0  HIT:          0  MISS:          0
cpu0_STLB TRANSLATION ACCESS:          0  HIT:          0  MISS:          0
cpu0_STLB PREFETCH  REQUESTED:          0  ISSUED:          0  USEFUL:          0  USELESS:          0
cpu0_STLB AVERAGE MISS LATENCY: 194.481 cycles
cpu0_L1D TOTAL     ACCESS:   91911947  HIT:   90592157  MISS:    1319790
cpu0_L1D LOAD      ACCESS:   66418474  HIT:   66353376  MISS:      65098
cpu0_L1D RFO       ACCESS:   25480356  HIT:   24225738  MISS:    1254618
cpu0_L1D PREFETCH  ACCESS:          0  HIT:          0  MISS:          0
cpu0_L1D WRITEBACK ACCESS:          0  HIT:          0  MISS:          0
cpu0_L1D TRANSLATION ACCESS:      13117  HIT:      13043  MISS:         74
cpu0_L1D PREFETCH  REQUESTED:          0  ISSUED:          0  USEFUL:          0  USELESS:          0
cpu0_L1D AVERAGE MISS LATENCY: 129.755 cycles
cpu0_L2C TOTAL     ACCESS:    2624289  HIT:    1815480  MISS:     808809
cpu0_L2C LOAD      ACCESS:      65103  HIT:      51912  MISS:      13191
cpu0_L2C RFO       ACCESS:    1254618  HIT:     459007  MISS:     795611
cpu0_L2C PREFETCH  ACCESS:          0  HIT:          0  MISS:          0
cpu0_L2C WRITEBACK ACCESS:    1304494  HIT:    1304487  MISS:          7
cpu0_L2C TRANSLATION ACCESS:         74  HIT:         74  MISS:          0
cpu0_L2C PREFETCH  REQUESTED:          0  ISSUED:          0  USEFUL:          0  USELESS:          0
cpu0_L2C AVERAGE MISS LATENCY: 193.78 cycles
LLC TOTAL     ACCESS:     878757  HIT:      11694  MISS:     867063
LLC LOAD      ACCESS:      13191  HIT:       2140  MISS:      11051
LLC RFO       ACCESS:     795611  HIT:       5919  MISS:     789692
LLC PREFETCH  ACCESS:      12428  HIT:       3635  MISS:       8793
LLC WRITEBACK ACCESS:      57527  HIT:          0  MISS:      57527
LLC TRANSLATION ACCESS:          0  HIT:          0  MISS:          0
LLC PREFETCH  REQUESTED:      13191  ISSUED:      13191  USEFUL:       8553  USELESS:        990
LLC AVERAGE MISS LATENCY: 162.72 cycles

DRAM Statistics
 CHANNEL 0
 RQ ROW_BUFFER_HIT:     627958  ROW_BUFFER_MISS:     181578
 DBUS AVG_CONGESTED_CYCLE:    3.98574
 WQ ROW_BUFFER_HIT:      13028  ROW_BUFFER_MISS:      35924  FULL:          0


CPU 0 Branch Prediction Accuracy: 97.8434% MPKI: 6.59114 Average ROB Occupancy at Mispredict: 41.0327
Branch type MPKI
BRANCH_DIRECT_JUMP: 1.8e-05
BRANCH_INDIRECT: 0.272332
BRANCH_CONDITIONAL: 5.26896
BRANCH_DIRECT_CALL: 3.8e-05
BRANCH_INDIRECT_CALL: 0.200958
BRANCH_RETURN: 0.848838

