/home/caslab/workspace/sim/ChampSim/bin/champsim --warmup_instructions 200000000 --simulation_instructions 500000000/ /home/caslab/workspace/sim/traces/speccpu_by_champsim623.xalancbmk_s-165B.champsimtrace.xz
start simulation for 623.xalancbmk_s-165B.champsimtrace.xz

*** ChampSim Multicore Out-of-Order Simulator ***

Warmup Instructions: 200000000
Simulation Instructions: 500000000
Number of CPUs: 1
Off-chip DRAM Size: 4 GiB Channels: 1 Width: 64-bit Data Rate: 3200 MT/s

VirtualMemory physical capacity: 8588881920 num_ppages: 2096895
VirtualMemory page size: 4096 log2_page_size: 12

CPU 0 runs /home/caslab/workspace/sim/traces/speccpu_by_champsim/623.xalancbmk_s-165B.champsimtrace.xz
CPU 0 Bimodal branch predictor
Basic BTB sets: 1024 ways: 8 indirect buffer size: 4096 RAS size: 64
LLC next line prefetcher
WARNING: The extended signature CACHE::prefetch_line(ip, base_addr, pf_addr, fill_this_level, prefetch_metadata) is deprecated.
WARNING: Use CACHE::prefetch_line(pf_addr, fill_this_level, prefetch_metadata) instead.
Heartbeat CPU 0 instructions: 10000003 cycles: 2821121 heartbeat IPC: 3.54469 cumulative IPC: 3.54469 (Simulation time: 0 hr 0 min 27 sec) 
Heartbeat CPU 0 instructions: 20000002 cycles: 5642672 heartbeat IPC: 3.54415 cumulative IPC: 3.54442 (Simulation time: 0 hr 0 min 53 sec) 
Heartbeat CPU 0 instructions: 30000001 cycles: 8463573 heartbeat IPC: 3.54497 cumulative IPC: 3.5446 (Simulation time: 0 hr 1 min 20 sec) 
Heartbeat CPU 0 instructions: 40000001 cycles: 11285161 heartbeat IPC: 3.5441 cumulative IPC: 3.54448 (Simulation time: 0 hr 1 min 46 sec) 
Heartbeat CPU 0 instructions: 50000004 cycles: 14106185 heartbeat IPC: 3.54481 cumulative IPC: 3.54454 (Simulation time: 0 hr 2 min 12 sec) 
Heartbeat CPU 0 instructions: 60000003 cycles: 16927810 heartbeat IPC: 3.54406 cumulative IPC: 3.54446 (Simulation time: 0 hr 2 min 39 sec) 
Heartbeat CPU 0 instructions: 70000002 cycles: 19748802 heartbeat IPC: 3.54485 cumulative IPC: 3.54452 (Simulation time: 0 hr 3 min 5 sec) 
Heartbeat CPU 0 instructions: 80000003 cycles: 22570391 heartbeat IPC: 3.5441 cumulative IPC: 3.54447 (Simulation time: 0 hr 3 min 31 sec) 
Heartbeat CPU 0 instructions: 90000000 cycles: 25391388 heartbeat IPC: 3.54484 cumulative IPC: 3.54451 (Simulation time: 0 hr 3 min 57 sec) 
Heartbeat CPU 0 instructions: 100000001 cycles: 28212908 heartbeat IPC: 3.54419 cumulative IPC: 3.54448 (Simulation time: 0 hr 4 min 23 sec) 
Heartbeat CPU 0 instructions: 110000001 cycles: 31033990 heartbeat IPC: 3.54474 cumulative IPC: 3.5445 (Simulation time: 0 hr 4 min 50 sec) 
Heartbeat CPU 0 instructions: 120000002 cycles: 33855360 heartbeat IPC: 3.54438 cumulative IPC: 3.54449 (Simulation time: 0 hr 5 min 16 sec) 
Heartbeat CPU 0 instructions: 130000000 cycles: 36676794 heartbeat IPC: 3.5443 cumulative IPC: 3.54448 (Simulation time: 0 hr 5 min 42 sec) 
Heartbeat CPU 0 instructions: 140000000 cycles: 39497747 heartbeat IPC: 3.5449 cumulative IPC: 3.54451 (Simulation time: 0 hr 6 min 8 sec) 
Heartbeat CPU 0 instructions: 150000004 cycles: 42319240 heartbeat IPC: 3.54422 cumulative IPC: 3.54449 (Simulation time: 0 hr 6 min 34 sec) 
Heartbeat CPU 0 instructions: 160000004 cycles: 45140078 heartbeat IPC: 3.54505 cumulative IPC: 3.54452 (Simulation time: 0 hr 7 min 1 sec) 
Heartbeat CPU 0 instructions: 170000002 cycles: 47961537 heartbeat IPC: 3.54426 cumulative IPC: 3.54451 (Simulation time: 0 hr 7 min 27 sec) 
Heartbeat CPU 0 instructions: 180000003 cycles: 50782759 heartbeat IPC: 3.54456 cumulative IPC: 3.54451 (Simulation time: 0 hr 7 min 53 sec) 
Heartbeat CPU 0 instructions: 190000000 cycles: 53603773 heartbeat IPC: 3.54482 cumulative IPC: 3.54453 (Simulation time: 0 hr 8 min 19 sec) 
Heartbeat CPU 0 instructions: 200000002 cycles: 56425188 heartbeat IPC: 3.54432 cumulative IPC: 3.54452 (Simulation time: 0 hr 8 min 45 sec) 

Warmup complete CPU 0 instructions: 200000002 cycles: 56425188 (Simulation time: 0 hr 8 min 45 sec) 

Heartbeat CPU 0 instructions: 210000000 cycles: 64094183 heartbeat IPC: 1.30395 cumulative IPC: 1.30395 (Simulation time: 0 hr 9 min 2 sec) 
Heartbeat CPU 0 instructions: 220000002 cycles: 72181778 heartbeat IPC: 1.23646 cumulative IPC: 1.26931 (Simulation time: 0 hr 9 min 20 sec) 
Heartbeat CPU 0 instructions: 230000001 cycles: 81200279 heartbeat IPC: 1.10883 cumulative IPC: 1.21089 (Simulation time: 0 hr 9 min 38 sec) 
Heartbeat CPU 0 instructions: 240000000 cycles: 90247537 heartbeat IPC: 1.10531 cumulative IPC: 1.18265 (Simulation time: 0 hr 9 min 56 sec) 
Heartbeat CPU 0 instructions: 250000002 cycles: 99299238 heartbeat IPC: 1.10476 cumulative IPC: 1.16621 (Simulation time: 0 hr 10 min 13 sec) 
Heartbeat CPU 0 instructions: 260000000 cycles: 108352526 heartbeat IPC: 1.10457 cumulative IPC: 1.15546 (Simulation time: 0 hr 10 min 31 sec) 
Heartbeat CPU 0 instructions: 270000000 cycles: 117413251 heartbeat IPC: 1.10366 cumulative IPC: 1.14777 (Simulation time: 0 hr 10 min 48 sec) 
Heartbeat CPU 0 instructions: 280000002 cycles: 126480323 heartbeat IPC: 1.10289 cumulative IPC: 1.14196 (Simulation time: 0 hr 11 min 5 sec) 
Heartbeat CPU 0 instructions: 290000004 cycles: 135536837 heartbeat IPC: 1.10418 cumulative IPC: 1.13763 (Simulation time: 0 hr 11 min 23 sec) 
Heartbeat CPU 0 instructions: 300000000 cycles: 144604534 heartbeat IPC: 1.10282 cumulative IPC: 1.13405 (Simulation time: 0 hr 11 min 40 sec) 
Heartbeat CPU 0 instructions: 310000000 cycles: 153665686 heartbeat IPC: 1.10361 cumulative IPC: 1.13122 (Simulation time: 0 hr 11 min 57 sec) 
Heartbeat CPU 0 instructions: 320000002 cycles: 162734463 heartbeat IPC: 1.10268 cumulative IPC: 1.12878 (Simulation time: 0 hr 12 min 14 sec) 
Heartbeat CPU 0 instructions: 330000004 cycles: 171783940 heartbeat IPC: 1.10504 cumulative IPC: 1.12692 (Simulation time: 0 hr 12 min 32 sec) 
Heartbeat CPU 0 instructions: 340000001 cycles: 180781710 heartbeat IPC: 1.11139 cumulative IPC: 1.1258 (Simulation time: 0 hr 12 min 49 sec) 
Heartbeat CPU 0 instructions: 350000003 cycles: 189768960 heartbeat IPC: 1.11269 cumulative IPC: 1.12491 (Simulation time: 0 hr 13 min 6 sec) 
Heartbeat CPU 0 instructions: 360000000 cycles: 198747353 heartbeat IPC: 1.11378 cumulative IPC: 1.12421 (Simulation time: 0 hr 13 min 23 sec) 
Heartbeat CPU 0 instructions: 370000001 cycles: 207718754 heartbeat IPC: 1.11465 cumulative IPC: 1.12364 (Simulation time: 0 hr 13 min 40 sec) 
Heartbeat CPU 0 instructions: 380000000 cycles: 216677405 heartbeat IPC: 1.11624 cumulative IPC: 1.12323 (Simulation time: 0 hr 13 min 57 sec) 
Heartbeat CPU 0 instructions: 390000004 cycles: 225638998 heartbeat IPC: 1.11587 cumulative IPC: 1.12284 (Simulation time: 0 hr 14 min 15 sec) 
Heartbeat CPU 0 instructions: 400000001 cycles: 234588249 heartbeat IPC: 1.11741 cumulative IPC: 1.12257 (Simulation time: 0 hr 14 min 32 sec) 
Heartbeat CPU 0 instructions: 410000004 cycles: 243530701 heartbeat IPC: 1.11826 cumulative IPC: 1.12236 (Simulation time: 0 hr 14 min 49 sec) 
Heartbeat CPU 0 instructions: 420000001 cycles: 252470472 heartbeat IPC: 1.1186 cumulative IPC: 1.12219 (Simulation time: 0 hr 15 min 6 sec) 
Heartbeat CPU 0 instructions: 430000000 cycles: 261402752 heartbeat IPC: 1.11953 cumulative IPC: 1.12207 (Simulation time: 0 hr 15 min 23 sec) 
Heartbeat CPU 0 instructions: 440000002 cycles: 270330710 heartbeat IPC: 1.12008 cumulative IPC: 1.12199 (Simulation time: 0 hr 15 min 40 sec) 
Heartbeat CPU 0 instructions: 450000000 cycles: 279259077 heartbeat IPC: 1.12003 cumulative IPC: 1.12191 (Simulation time: 0 hr 15 min 57 sec) 
Heartbeat CPU 0 instructions: 460000000 cycles: 288179614 heartbeat IPC: 1.12101 cumulative IPC: 1.12188 (Simulation time: 0 hr 16 min 14 sec) 
Heartbeat CPU 0 instructions: 470000001 cycles: 297096452 heartbeat IPC: 1.12147 cumulative IPC: 1.12186 (Simulation time: 0 hr 16 min 31 sec) 
Heartbeat CPU 0 instructions: 480000002 cycles: 306015599 heartbeat IPC: 1.12118 cumulative IPC: 1.12184 (Simulation time: 0 hr 16 min 48 sec) 
Heartbeat CPU 0 instructions: 490000000 cycles: 314924151 heartbeat IPC: 1.12252 cumulative IPC: 1.12186 (Simulation time: 0 hr 17 min 5 sec) 
Heartbeat CPU 0 instructions: 500000000 cycles: 323825414 heartbeat IPC: 1.12344 cumulative IPC: 1.12191 (Simulation time: 0 hr 17 min 22 sec) 
Heartbeat CPU 0 instructions: 510000002 cycles: 332730484 heartbeat IPC: 1.12296 cumulative IPC: 1.12195 (Simulation time: 0 hr 17 min 39 sec) 
Heartbeat CPU 0 instructions: 520000002 cycles: 341631373 heartbeat IPC: 1.12348 cumulative IPC: 1.122 (Simulation time: 0 hr 17 min 57 sec) 
Heartbeat CPU 0 instructions: 530000001 cycles: 350535499 heartbeat IPC: 1.12307 cumulative IPC: 1.12203 (Simulation time: 0 hr 18 min 14 sec) 
Heartbeat CPU 0 instructions: 540000004 cycles: 359429254 heartbeat IPC: 1.12438 cumulative IPC: 1.1221 (Simulation time: 0 hr 18 min 31 sec) 
Heartbeat CPU 0 instructions: 550000001 cycles: 368328696 heartbeat IPC: 1.12367 cumulative IPC: 1.12214 (Simulation time: 0 hr 18 min 48 sec) 
Heartbeat CPU 0 instructions: 560000003 cycles: 377223132 heartbeat IPC: 1.1243 cumulative IPC: 1.1222 (Simulation time: 0 hr 19 min 5 sec) 
Heartbeat CPU 0 instructions: 570000000 cycles: 386119280 heartbeat IPC: 1.12408 cumulative IPC: 1.12225 (Simulation time: 0 hr 19 min 22 sec) 
Heartbeat CPU 0 instructions: 580000002 cycles: 395005633 heartbeat IPC: 1.12532 cumulative IPC: 1.12233 (Simulation time: 0 hr 19 min 39 sec) 
Heartbeat CPU 0 instructions: 590000000 cycles: 403892020 heartbeat IPC: 1.12532 cumulative IPC: 1.12241 (Simulation time: 0 hr 19 min 56 sec) 
Heartbeat CPU 0 instructions: 600000002 cycles: 412782324 heartbeat IPC: 1.12482 cumulative IPC: 1.12247 (Simulation time: 0 hr 20 min 13 sec) 
Heartbeat CPU 0 instructions: 610000003 cycles: 421668779 heartbeat IPC: 1.12531 cumulative IPC: 1.12254 (Simulation time: 0 hr 20 min 30 sec) 
Heartbeat CPU 0 instructions: 620000001 cycles: 430540446 heartbeat IPC: 1.12718 cumulative IPC: 1.12265 (Simulation time: 0 hr 20 min 47 sec) 
Heartbeat CPU 0 instructions: 630000000 cycles: 439417155 heartbeat IPC: 1.12654 cumulative IPC: 1.12274 (Simulation time: 0 hr 21 min 4 sec) 
Heartbeat CPU 0 instructions: 640000002 cycles: 448299718 heartbeat IPC: 1.1258 cumulative IPC: 1.12281 (Simulation time: 0 hr 21 min 21 sec) 
Heartbeat CPU 0 instructions: 650000002 cycles: 457178184 heartbeat IPC: 1.12632 cumulative IPC: 1.12289 (Simulation time: 0 hr 21 min 38 sec) 
Heartbeat CPU 0 instructions: 660000002 cycles: 466047661 heartbeat IPC: 1.12746 cumulative IPC: 1.12299 (Simulation time: 0 hr 21 min 55 sec) 
Heartbeat CPU 0 instructions: 670000001 cycles: 474936519 heartbeat IPC: 1.125 cumulative IPC: 1.12303 (Simulation time: 0 hr 22 min 12 sec) 
Heartbeat CPU 0 instructions: 680000001 cycles: 483922897 heartbeat IPC: 1.1128 cumulative IPC: 1.12281 (Simulation time: 0 hr 22 min 29 sec) 
Heartbeat CPU 0 instructions: 690000001 cycles: 492907800 heartbeat IPC: 1.11298 cumulative IPC: 1.12261 (Simulation time: 0 hr 22 min 46 sec) 
Heartbeat CPU 0 instructions: 700000000 cycles: 501891483 heartbeat IPC: 1.11313 cumulative IPC: 1.12242 (Simulation time: 0 hr 23 min 3 sec) 
Finished CPU 0 instructions: 500000003 cycles: 445466296 cumulative IPC: 1.12242 (Simulation time: 0 hr 23 min 3 sec) 

ChampSim completed all CPUs

Region of Interest Statistics

CPU 0 cumulative IPC: 1.12242 instructions: 500000003 cycles: 445466296
cpu0_L1I TOTAL     ACCESS:     185523  HIT:     185430  MISS:         93
cpu0_L1I LOAD      ACCESS:     185523  HIT:     185430  MISS:         93
cpu0_L1I RFO       ACCESS:          0  HIT:          0  MISS:          0
cpu0_L1I PREFETCH  ACCESS:          0  HIT:          0  MISS:          0
cpu0_L1I WRITEBACK ACCESS:          0  HIT:          0  MISS:          0
cpu0_L1I TRANSLATION ACCESS:          0  HIT:          0  MISS:          0
cpu0_L1I PREFETCH  REQUESTED:          0  ISSUED:          0  USEFUL:          0  USELESS:          0
cpu0_L1I AVERAGE MISS LATENCY: 127.796 cycles
cpu0_DTLB TOTAL     ACCESS:  106703735  HIT:  106693197  MISS:      10538
cpu0_DTLB LOAD      ACCESS:   99823564  HIT:   99813230  MISS:      10334
cpu0_DTLB RFO       ACCESS:    6880171  HIT:    6879967  MISS:        204
cpu0_DTLB PREFETCH  ACCESS:          0  HIT:          0  MISS:          0
cpu0_DTLB WRITEBACK ACCESS:          0  HIT:          0  MISS:          0
cpu0_DTLB TRANSLATION ACCESS:          0  HIT:          0  MISS:          0
cpu0_DTLB PREFETCH  REQUESTED:          0  ISSUED:          0  USEFUL:          0  USELESS:          0
cpu0_DTLB AVERAGE MISS LATENCY: 51.9837 cycles
cpu0_ITLB TOTAL     ACCESS:   65507563  HIT:   65507552  MISS:         11
cpu0_ITLB LOAD      ACCESS:   65507563  HIT:   65507552  MISS:         11
cpu0_ITLB RFO       ACCESS:          0  HIT:          0  MISS:          0
cpu0_ITLB PREFETCH  ACCESS:          0  HIT:          0  MISS:          0
cpu0_ITLB WRITEBACK ACCESS:          0  HIT:          0  MISS:          0
cpu0_ITLB TRANSLATION ACCESS:          0  HIT:          0  MISS:          0
cpu0_ITLB PREFETCH  REQUESTED:          0  ISSUED:          0  USEFUL:          0  USELESS:          0
cpu0_ITLB AVERAGE MISS LATENCY: 218 cycles
cpu0_STLB TOTAL     ACCESS:      10549  HIT:       8347  MISS:       2202
cpu0_STLB LOAD      ACCESS:      10345  HIT:       8344  MISS:       2001
cpu0_STLB RFO       ACCESS:        204  HIT:          3  MISS:        201
cpu0_STLB PREFETCH  ACCESS:          0  HIT:          0  MISS:          0
cpu0_STLB WRITEBACK ACCESS:          0  HIT:          0  MISS:          0
cpu0_STLB TRANSLATION ACCESS:          0  HIT:          0  MISS:          0
cpu0_STLB PREFETCH  REQUESTED:          0  ISSUED:          0  USEFUL:          0  USELESS:          0
cpu0_STLB AVERAGE MISS LATENCY: 206.73 cycles
cpu0_L1D TOTAL     ACCESS:   88516409  HIT:   88439347  MISS:      77062
cpu0_L1D LOAD      ACCESS:   79069902  HIT:   79005672  MISS:      64230
cpu0_L1D RFO       ACCESS:    9444404  HIT:    9431590  MISS:      12814
cpu0_L1D PREFETCH  ACCESS:          0  HIT:          0  MISS:          0
cpu0_L1D WRITEBACK ACCESS:          0  HIT:          0  MISS:          0
cpu0_L1D TRANSLATION ACCESS:       2103  HIT:       2085  MISS:         18
cpu0_L1D PREFETCH  REQUESTED:          0  ISSUED:          0  USEFUL:          0  USELESS:          0
cpu0_L1D AVERAGE MISS LATENCY: 71.6451 cycles
cpu0_L2C TOTAL     ACCESS:      77291  HIT:      48640  MISS:      28651
cpu0_L2C LOAD      ACCESS:      64323  HIT:      48463  MISS:      15860
cpu0_L2C RFO       ACCESS:      12814  HIT:         30  MISS:      12784
cpu0_L2C PREFETCH  ACCESS:          0  HIT:          0  MISS:          0
cpu0_L2C WRITEBACK ACCESS:        136  HIT:        136  MISS:          0
cpu0_L2C TRANSLATION ACCESS:         18  HIT:         11  MISS:          7
cpu0_L2C PREFETCH  REQUESTED:          0  ISSUED:          0  USEFUL:          0  USELESS:          0
cpu0_L2C AVERAGE MISS LATENCY: 163.184 cycles
LLC TOTAL     ACCESS:      40781  HIT:       6244  MISS:      34537
LLC LOAD      ACCESS:      15860  HIT:       3244  MISS:      12616
LLC RFO       ACCESS:      12784  HIT:          2  MISS:      12782
LLC PREFETCH  ACCESS:      12130  HIT:       2998  MISS:       9132
LLC WRITEBACK ACCESS:          0  HIT:          0  MISS:          0
LLC TRANSLATION ACCESS:          7  HIT:          0  MISS:          7
LLC PREFETCH  REQUESTED:      15860  ISSUED:      15860  USEFUL:       3911  USELESS:       3369
LLC AVERAGE MISS LATENCY: 164.88 cycles

DRAM Statistics
 CHANNEL 0
 RQ ROW_BUFFER_HIT:       3619  ROW_BUFFER_MISS:      30918
 DBUS AVG_CONGESTED_CYCLE:    3.90891
 WQ ROW_BUFFER_HIT:          0  ROW_BUFFER_MISS:          0  FULL:          0


CPU 0 Branch Prediction Accuracy: 90.4078% MPKI: 26.3697 Average ROB Occupancy at Mispredict: 19.9802
Branch type MPKI
BRANCH_DIRECT_JUMP: 5.4e-05
BRANCH_INDIRECT: 0
BRANCH_CONDITIONAL: 26.3695
BRANCH_DIRECT_CALL: 2.2e-05
BRANCH_INDIRECT_CALL: 0.000102
BRANCH_RETURN: 4.4e-05

