/home/caslab/workspace/sim/ChampSim/bin/champsim --warmup_instructions 200000000 --simulation_instructions 500000000/ /home/caslab/workspace/sim/traces/speccpu_by_champsim625.x264_s-12B.champsimtrace.xz
start simulation for 625.x264_s-12B.champsimtrace.xz

*** ChampSim Multicore Out-of-Order Simulator ***

Warmup Instructions: 200000000
Simulation Instructions: 500000000
Number of CPUs: 1
Off-chip DRAM Size: 4 GiB Channels: 1 Width: 64-bit Data Rate: 3200 MT/s

VirtualMemory physical capacity: 8588881920 num_ppages: 2096895
VirtualMemory page size: 4096 log2_page_size: 12

CPU 0 runs /home/caslab/workspace/sim/traces/speccpu_by_champsim/625.x264_s-12B.champsimtrace.xz
CPU 0 Bimodal branch predictor
Basic BTB sets: 1024 ways: 8 indirect buffer size: 4096 RAS size: 64
LLC next line prefetcher
WARNING: The extended signature CACHE::prefetch_line(ip, base_addr, pf_addr, fill_this_level, prefetch_metadata) is deprecated.
WARNING: Use CACHE::prefetch_line(pf_addr, fill_this_level, prefetch_metadata) instead.
Heartbeat CPU 0 instructions: 10000002 cycles: 2500086 heartbeat IPC: 3.99986 cumulative IPC: 3.99986 (Simulation time: 0 hr 0 min 19 sec) 
Heartbeat CPU 0 instructions: 20000002 cycles: 5000086 heartbeat IPC: 4 cumulative IPC: 3.99993 (Simulation time: 0 hr 0 min 39 sec) 
Heartbeat CPU 0 instructions: 30000002 cycles: 7500086 heartbeat IPC: 4 cumulative IPC: 3.99995 (Simulation time: 0 hr 0 min 59 sec) 
Heartbeat CPU 0 instructions: 40000002 cycles: 10000086 heartbeat IPC: 4 cumulative IPC: 3.99997 (Simulation time: 0 hr 1 min 19 sec) 
Heartbeat CPU 0 instructions: 50000002 cycles: 12500086 heartbeat IPC: 4 cumulative IPC: 3.99997 (Simulation time: 0 hr 1 min 39 sec) 
Heartbeat CPU 0 instructions: 60000002 cycles: 15000086 heartbeat IPC: 4 cumulative IPC: 3.99998 (Simulation time: 0 hr 1 min 59 sec) 
Heartbeat CPU 0 instructions: 70000002 cycles: 17500086 heartbeat IPC: 4 cumulative IPC: 3.99998 (Simulation time: 0 hr 2 min 18 sec) 
Heartbeat CPU 0 instructions: 80000002 cycles: 20000086 heartbeat IPC: 4 cumulative IPC: 3.99998 (Simulation time: 0 hr 2 min 38 sec) 
Heartbeat CPU 0 instructions: 90000002 cycles: 22500086 heartbeat IPC: 4 cumulative IPC: 3.99998 (Simulation time: 0 hr 2 min 57 sec) 
Heartbeat CPU 0 instructions: 100000002 cycles: 25000086 heartbeat IPC: 4 cumulative IPC: 3.99999 (Simulation time: 0 hr 3 min 17 sec) 
Heartbeat CPU 0 instructions: 110000002 cycles: 27500086 heartbeat IPC: 4 cumulative IPC: 3.99999 (Simulation time: 0 hr 3 min 36 sec) 
Heartbeat CPU 0 instructions: 120000002 cycles: 30000086 heartbeat IPC: 4 cumulative IPC: 3.99999 (Simulation time: 0 hr 3 min 56 sec) 
Heartbeat CPU 0 instructions: 130000002 cycles: 32500086 heartbeat IPC: 4 cumulative IPC: 3.99999 (Simulation time: 0 hr 4 min 15 sec) 
Heartbeat CPU 0 instructions: 140000002 cycles: 35000086 heartbeat IPC: 4 cumulative IPC: 3.99999 (Simulation time: 0 hr 4 min 36 sec) 
Heartbeat CPU 0 instructions: 150000002 cycles: 37500086 heartbeat IPC: 4 cumulative IPC: 3.99999 (Simulation time: 0 hr 4 min 56 sec) 
Heartbeat CPU 0 instructions: 160000002 cycles: 40000086 heartbeat IPC: 4 cumulative IPC: 3.99999 (Simulation time: 0 hr 5 min 16 sec) 
Heartbeat CPU 0 instructions: 170000002 cycles: 42500086 heartbeat IPC: 4 cumulative IPC: 3.99999 (Simulation time: 0 hr 5 min 37 sec) 
Heartbeat CPU 0 instructions: 180000002 cycles: 45000086 heartbeat IPC: 4 cumulative IPC: 3.99999 (Simulation time: 0 hr 5 min 57 sec) 
Heartbeat CPU 0 instructions: 190000002 cycles: 47500086 heartbeat IPC: 4 cumulative IPC: 3.99999 (Simulation time: 0 hr 6 min 18 sec) 
Heartbeat CPU 0 instructions: 200000002 cycles: 50000086 heartbeat IPC: 4 cumulative IPC: 3.99999 (Simulation time: 0 hr 6 min 38 sec) 

Warmup complete CPU 0 instructions: 200000002 cycles: 50000086 (Simulation time: 0 hr 6 min 38 sec) 

Heartbeat CPU 0 instructions: 210000000 cycles: 54099329 heartbeat IPC: 2.43947 cumulative IPC: 2.43947 (Simulation time: 0 hr 6 min 57 sec) 
Heartbeat CPU 0 instructions: 220000003 cycles: 58202145 heartbeat IPC: 2.43735 cumulative IPC: 2.43841 (Simulation time: 0 hr 7 min 16 sec) 
Heartbeat CPU 0 instructions: 230000002 cycles: 62300635 heartbeat IPC: 2.43992 cumulative IPC: 2.43892 (Simulation time: 0 hr 7 min 36 sec) 
Heartbeat CPU 0 instructions: 240000004 cycles: 66527161 heartbeat IPC: 2.36601 cumulative IPC: 2.42027 (Simulation time: 0 hr 7 min 58 sec) 
Heartbeat CPU 0 instructions: 250000004 cycles: 70667325 heartbeat IPC: 2.41536 cumulative IPC: 2.41929 (Simulation time: 0 hr 8 min 16 sec) 
Heartbeat CPU 0 instructions: 260000002 cycles: 74824633 heartbeat IPC: 2.4054 cumulative IPC: 2.41696 (Simulation time: 0 hr 8 min 35 sec) 
Heartbeat CPU 0 instructions: 270000004 cycles: 79001925 heartbeat IPC: 2.3939 cumulative IPC: 2.41364 (Simulation time: 0 hr 8 min 54 sec) 
Heartbeat CPU 0 instructions: 280000000 cycles: 83163567 heartbeat IPC: 2.4029 cumulative IPC: 2.41229 (Simulation time: 0 hr 9 min 12 sec) 
Heartbeat CPU 0 instructions: 290000000 cycles: 87329470 heartbeat IPC: 2.40044 cumulative IPC: 2.41097 (Simulation time: 0 hr 9 min 31 sec) 
Heartbeat CPU 0 instructions: 300000004 cycles: 91493358 heartbeat IPC: 2.4016 cumulative IPC: 2.41003 (Simulation time: 0 hr 9 min 49 sec) 
Heartbeat CPU 0 instructions: 310000000 cycles: 95629320 heartbeat IPC: 2.41782 cumulative IPC: 2.41074 (Simulation time: 0 hr 10 min 7 sec) 
Heartbeat CPU 0 instructions: 320000003 cycles: 99772483 heartbeat IPC: 2.41362 cumulative IPC: 2.41097 (Simulation time: 0 hr 10 min 25 sec) 
Heartbeat CPU 0 instructions: 330000001 cycles: 103926993 heartbeat IPC: 2.40702 cumulative IPC: 2.41067 (Simulation time: 0 hr 10 min 43 sec) 
Heartbeat CPU 0 instructions: 340000001 cycles: 108082152 heartbeat IPC: 2.40665 cumulative IPC: 2.41038 (Simulation time: 0 hr 11 min 1 sec) 
Heartbeat CPU 0 instructions: 350000001 cycles: 112237479 heartbeat IPC: 2.40655 cumulative IPC: 2.41013 (Simulation time: 0 hr 11 min 19 sec) 
Heartbeat CPU 0 instructions: 360000004 cycles: 116346206 heartbeat IPC: 2.43384 cumulative IPC: 2.4116 (Simulation time: 0 hr 11 min 37 sec) 
Heartbeat CPU 0 instructions: 370000004 cycles: 120450165 heartbeat IPC: 2.43667 cumulative IPC: 2.41306 (Simulation time: 0 hr 11 min 56 sec) 
Heartbeat CPU 0 instructions: 380000000 cycles: 124662744 heartbeat IPC: 2.37384 cumulative IPC: 2.41084 (Simulation time: 0 hr 12 min 15 sec) 
Heartbeat CPU 0 instructions: 390000002 cycles: 128899870 heartbeat IPC: 2.36009 cumulative IPC: 2.40812 (Simulation time: 0 hr 12 min 34 sec) 
Heartbeat CPU 0 instructions: 400000004 cycles: 133151401 heartbeat IPC: 2.35209 cumulative IPC: 2.40525 (Simulation time: 0 hr 12 min 52 sec) 
Heartbeat CPU 0 instructions: 410000003 cycles: 137390629 heartbeat IPC: 2.35892 cumulative IPC: 2.40301 (Simulation time: 0 hr 13 min 11 sec) 
Heartbeat CPU 0 instructions: 420000003 cycles: 141638565 heartbeat IPC: 2.35408 cumulative IPC: 2.40074 (Simulation time: 0 hr 13 min 30 sec) 
Heartbeat CPU 0 instructions: 430000002 cycles: 145838548 heartbeat IPC: 2.38096 cumulative IPC: 2.39987 (Simulation time: 0 hr 13 min 49 sec) 
Heartbeat CPU 0 instructions: 440000003 cycles: 150221662 heartbeat IPC: 2.28148 cumulative IPC: 2.39469 (Simulation time: 0 hr 14 min 8 sec) 
Heartbeat CPU 0 instructions: 450000003 cycles: 158882662 heartbeat IPC: 1.1546 cumulative IPC: 2.29605 (Simulation time: 0 hr 14 min 28 sec) 
Heartbeat CPU 0 instructions: 460000003 cycles: 163216625 heartbeat IPC: 2.30736 cumulative IPC: 2.29648 (Simulation time: 0 hr 14 min 48 sec) 
Heartbeat CPU 0 instructions: 470000001 cycles: 166292596 heartbeat IPC: 3.25101 cumulative IPC: 2.32173 (Simulation time: 0 hr 15 min 7 sec) 
Heartbeat CPU 0 instructions: 480000000 cycles: 169607851 heartbeat IPC: 3.01636 cumulative IPC: 2.34099 (Simulation time: 0 hr 15 min 27 sec) 
Heartbeat CPU 0 instructions: 490000003 cycles: 173450664 heartbeat IPC: 2.60226 cumulative IPC: 2.34912 (Simulation time: 0 hr 15 min 47 sec) 
Heartbeat CPU 0 instructions: 500000004 cycles: 177031463 heartbeat IPC: 2.79267 cumulative IPC: 2.36162 (Simulation time: 0 hr 16 min 6 sec) 
Heartbeat CPU 0 instructions: 510000004 cycles: 180556681 heartbeat IPC: 2.8367 cumulative IPC: 2.37445 (Simulation time: 0 hr 16 min 26 sec) 
Heartbeat CPU 0 instructions: 520000004 cycles: 184105310 heartbeat IPC: 2.81799 cumulative IPC: 2.38619 (Simulation time: 0 hr 16 min 45 sec) 
Heartbeat CPU 0 instructions: 530000001 cycles: 187683721 heartbeat IPC: 2.79454 cumulative IPC: 2.3968 (Simulation time: 0 hr 17 min 4 sec) 
Heartbeat CPU 0 instructions: 540000001 cycles: 191275155 heartbeat IPC: 2.7844 cumulative IPC: 2.40665 (Simulation time: 0 hr 17 min 24 sec) 
Heartbeat CPU 0 instructions: 550000001 cycles: 194757225 heartbeat IPC: 2.87186 cumulative IPC: 2.41784 (Simulation time: 0 hr 17 min 43 sec) 
Heartbeat CPU 0 instructions: 560000001 cycles: 198350644 heartbeat IPC: 2.78287 cumulative IPC: 2.42668 (Simulation time: 0 hr 18 min 2 sec) 
Heartbeat CPU 0 instructions: 570000000 cycles: 201924133 heartbeat IPC: 2.79839 cumulative IPC: 2.43543 (Simulation time: 0 hr 18 min 21 sec) 
Heartbeat CPU 0 instructions: 580000000 cycles: 205460708 heartbeat IPC: 2.82759 cumulative IPC: 2.44435 (Simulation time: 0 hr 18 min 41 sec) 
Heartbeat CPU 0 instructions: 590000000 cycles: 209050357 heartbeat IPC: 2.78579 cumulative IPC: 2.45205 (Simulation time: 0 hr 19 min 0 sec) 
Heartbeat CPU 0 instructions: 600000002 cycles: 212623459 heartbeat IPC: 2.79869 cumulative IPC: 2.45967 (Simulation time: 0 hr 19 min 20 sec) 
Heartbeat CPU 0 instructions: 610000001 cycles: 216167692 heartbeat IPC: 2.82148 cumulative IPC: 2.46739 (Simulation time: 0 hr 19 min 39 sec) 
Heartbeat CPU 0 instructions: 620000002 cycles: 219752322 heartbeat IPC: 2.78969 cumulative IPC: 2.47419 (Simulation time: 0 hr 19 min 59 sec) 
Heartbeat CPU 0 instructions: 630000004 cycles: 223282403 heartbeat IPC: 2.8328 cumulative IPC: 2.4815 (Simulation time: 0 hr 20 min 18 sec) 
Heartbeat CPU 0 instructions: 640000004 cycles: 226880136 heartbeat IPC: 2.77953 cumulative IPC: 2.48756 (Simulation time: 0 hr 20 min 38 sec) 
Heartbeat CPU 0 instructions: 650000002 cycles: 230440987 heartbeat IPC: 2.80832 cumulative IPC: 2.49389 (Simulation time: 0 hr 20 min 58 sec) 
Heartbeat CPU 0 instructions: 660000000 cycles: 233951022 heartbeat IPC: 2.84897 cumulative IPC: 2.50067 (Simulation time: 0 hr 21 min 18 sec) 
Heartbeat CPU 0 instructions: 670000003 cycles: 240221527 heartbeat IPC: 1.59477 cumulative IPC: 2.4708 (Simulation time: 0 hr 21 min 49 sec) 
Heartbeat CPU 0 instructions: 680000003 cycles: 243719132 heartbeat IPC: 2.8591 cumulative IPC: 2.47782 (Simulation time: 0 hr 22 min 25 sec) 
Heartbeat CPU 0 instructions: 690000001 cycles: 247412285 heartbeat IPC: 2.70771 cumulative IPC: 2.48212 (Simulation time: 0 hr 22 min 56 sec) 
Heartbeat CPU 0 instructions: 700000001 cycles: 251097222 heartbeat IPC: 2.71375 cumulative IPC: 2.48636 (Simulation time: 0 hr 23 min 17 sec) 
Finished CPU 0 instructions: 500000004 cycles: 201097137 cumulative IPC: 2.48636 (Simulation time: 0 hr 23 min 17 sec) 

ChampSim completed all CPUs

Region of Interest Statistics

CPU 0 cumulative IPC: 2.48636 instructions: 500000004 cycles: 201097137
cpu0_L1I TOTAL     ACCESS:   13314538  HIT:   13312343  MISS:       2195
cpu0_L1I LOAD      ACCESS:   13314538  HIT:   13312343  MISS:       2195
cpu0_L1I RFO       ACCESS:          0  HIT:          0  MISS:          0
cpu0_L1I PREFETCH  ACCESS:          0  HIT:          0  MISS:          0
cpu0_L1I WRITEBACK ACCESS:          0  HIT:          0  MISS:          0
cpu0_L1I TRANSLATION ACCESS:          0  HIT:          0  MISS:          0
cpu0_L1I PREFETCH  REQUESTED:          0  ISSUED:          0  USEFUL:          0  USELESS:          0
cpu0_L1I AVERAGE MISS LATENCY: 118.437 cycles
cpu0_DTLB TOTAL     ACCESS:   61361083  HIT:   61324703  MISS:      36380
cpu0_DTLB LOAD      ACCESS:   45543348  HIT:   45517170  MISS:      26178
cpu0_DTLB RFO       ACCESS:   15817735  HIT:   15807533  MISS:      10202
cpu0_DTLB PREFETCH  ACCESS:          0  HIT:          0  MISS:          0
cpu0_DTLB WRITEBACK ACCESS:          0  HIT:          0  MISS:          0
cpu0_DTLB TRANSLATION ACCESS:          0  HIT:          0  MISS:          0
cpu0_DTLB PREFETCH  REQUESTED:          0  ISSUED:          0  USEFUL:          0  USELESS:          0
cpu0_DTLB AVERAGE MISS LATENCY: 46.5825 cycles
cpu0_ITLB TOTAL     ACCESS:   34256604  HIT:   34256512  MISS:         92
cpu0_ITLB LOAD      ACCESS:   34256604  HIT:   34256512  MISS:         92
cpu0_ITLB RFO       ACCESS:          0  HIT:          0  MISS:          0
cpu0_ITLB PREFETCH  ACCESS:          0  HIT:          0  MISS:          0
cpu0_ITLB WRITEBACK ACCESS:          0  HIT:          0  MISS:          0
cpu0_ITLB TRANSLATION ACCESS:          0  HIT:          0  MISS:          0
cpu0_ITLB PREFETCH  REQUESTED:          0  ISSUED:          0  USEFUL:          0  USELESS:          0
cpu0_ITLB AVERAGE MISS LATENCY: 217.37 cycles
cpu0_STLB TOTAL     ACCESS:      36472  HIT:      30314  MISS:       6158
cpu0_STLB LOAD      ACCESS:      26270  HIT:      22152  MISS:       4118
cpu0_STLB RFO       ACCESS:      10202  HIT:       8162  MISS:       2040
cpu0_STLB PREFETCH  ACCESS:          0  HIT:          0  MISS:          0
cpu0_STLB WRITEBACK ACCESS:          0  HIT:          0  MISS:          0
cpu0_STLB TRANSLATION ACCESS:          0  HIT:          0  MISS:          0
cpu0_STLB PREFETCH  REQUESTED:          0  ISSUED:          0  USEFUL:          0  USELESS:          0
cpu0_STLB AVERAGE MISS LATENCY: 225.062 cycles
cpu0_L1D TOTAL     ACCESS:   72045553  HIT:   71672029  MISS:     373524
cpu0_L1D LOAD      ACCESS:   40198175  HIT:   39966424  MISS:     231751
cpu0_L1D RFO       ACCESS:   31841600  HIT:   31699845  MISS:     141755
cpu0_L1D PREFETCH  ACCESS:          0  HIT:          0  MISS:          0
cpu0_L1D WRITEBACK ACCESS:          0  HIT:          0  MISS:          0
cpu0_L1D TRANSLATION ACCESS:       5778  HIT:       5760  MISS:         18
cpu0_L1D PREFETCH  REQUESTED:          0  ISSUED:          0  USEFUL:          0  USELESS:          0
cpu0_L1D AVERAGE MISS LATENCY: 192.388 cycles
cpu0_L2C TOTAL     ACCESS:     503343  HIT:     171455  MISS:     331888
cpu0_L2C LOAD      ACCESS:     233946  HIT:      35107  MISS:     198839
cpu0_L2C RFO       ACCESS:     141755  HIT:       8712  MISS:     133043
cpu0_L2C PREFETCH  ACCESS:          0  HIT:          0  MISS:          0
cpu0_L2C WRITEBACK ACCESS:     127624  HIT:     127624  MISS:          0
cpu0_L2C TRANSLATION ACCESS:         18  HIT:         12  MISS:          6
cpu0_L2C PREFETCH  REQUESTED:          0  ISSUED:          0  USEFUL:          0  USELESS:          0
cpu0_L2C AVERAGE MISS LATENCY: 204.801 cycles
LLC TOTAL     ACCESS:     484722  HIT:     131563  MISS:     353159
LLC LOAD      ACCESS:     198839  HIT:      85302  MISS:     113537
LLC RFO       ACCESS:     133043  HIT:         64  MISS:     132979
LLC PREFETCH  ACCESS:     152834  HIT:      46197  MISS:     106637
LLC WRITEBACK ACCESS:          0  HIT:          0  MISS:          0
LLC TRANSLATION ACCESS:          6  HIT:          0  MISS:          6
LLC PREFETCH  REQUESTED:     198839  ISSUED:     198839  USEFUL:     109901  USELESS:      23323
LLC AVERAGE MISS LATENCY: 225.124 cycles

DRAM Statistics
 CHANNEL 0
 RQ ROW_BUFFER_HIT:      72036  ROW_BUFFER_MISS:     281123
 DBUS AVG_CONGESTED_CYCLE:    3.92663
 WQ ROW_BUFFER_HIT:          0  ROW_BUFFER_MISS:          0  FULL:          0


CPU 0 Branch Prediction Accuracy: 84.731% MPKI: 6.57344 Average ROB Occupancy at Mispredict: 89.262
Branch type MPKI
BRANCH_DIRECT_JUMP: 0.000534
BRANCH_INDIRECT: 0.001156
BRANCH_CONDITIONAL: 6.48638
BRANCH_DIRECT_CALL: 0.00091
BRANCH_INDIRECT_CALL: 0.023148
BRANCH_RETURN: 0.06131

