/home/caslab/workspace/sim/ChampSim/bin/champsim --warmup_instructions 200000000 --simulation_instructions 500000000/ /home/caslab/workspace/sim/traces/speccpu_by_champsim638.imagick_s-10316B.champsimtrace.xz
start simulation for 638.imagick_s-10316B.champsimtrace.xz

*** ChampSim Multicore Out-of-Order Simulator ***

Warmup Instructions: 200000000
Simulation Instructions: 500000000
Number of CPUs: 1
Off-chip DRAM Size: 4 GiB Channels: 1 Width: 64-bit Data Rate: 3200 MT/s

VirtualMemory physical capacity: 8588881920 num_ppages: 2096895
VirtualMemory page size: 4096 log2_page_size: 12

CPU 0 runs /home/caslab/workspace/sim/traces/speccpu_by_champsim/638.imagick_s-10316B.champsimtrace.xz
CPU 0 Bimodal branch predictor
Basic BTB sets: 1024 ways: 8 indirect buffer size: 4096 RAS size: 64
LLC next line prefetcher
WARNING: The extended signature CACHE::prefetch_line(ip, base_addr, pf_addr, fill_this_level, prefetch_metadata) is deprecated.
WARNING: Use CACHE::prefetch_line(pf_addr, fill_this_level, prefetch_metadata) instead.
Heartbeat CPU 0 instructions: 10000002 cycles: 2500063 heartbeat IPC: 3.9999 cumulative IPC: 3.9999 (Simulation time: 0 hr 0 min 18 sec) 
Heartbeat CPU 0 instructions: 20000002 cycles: 5000063 heartbeat IPC: 4 cumulative IPC: 3.99995 (Simulation time: 0 hr 0 min 35 sec) 
Heartbeat CPU 0 instructions: 30000002 cycles: 7500063 heartbeat IPC: 4 cumulative IPC: 3.99997 (Simulation time: 0 hr 0 min 52 sec) 
Heartbeat CPU 0 instructions: 40000002 cycles: 10000063 heartbeat IPC: 4 cumulative IPC: 3.99997 (Simulation time: 0 hr 1 min 9 sec) 
Heartbeat CPU 0 instructions: 50000002 cycles: 12500063 heartbeat IPC: 4 cumulative IPC: 3.99998 (Simulation time: 0 hr 1 min 26 sec) 
Heartbeat CPU 0 instructions: 60000002 cycles: 15000063 heartbeat IPC: 4 cumulative IPC: 3.99998 (Simulation time: 0 hr 1 min 43 sec) 
Heartbeat CPU 0 instructions: 70000002 cycles: 17500063 heartbeat IPC: 4 cumulative IPC: 3.99999 (Simulation time: 0 hr 2 min 0 sec) 
Heartbeat CPU 0 instructions: 80000002 cycles: 20000063 heartbeat IPC: 4 cumulative IPC: 3.99999 (Simulation time: 0 hr 2 min 17 sec) 
Heartbeat CPU 0 instructions: 90000002 cycles: 22500063 heartbeat IPC: 4 cumulative IPC: 3.99999 (Simulation time: 0 hr 2 min 34 sec) 
Heartbeat CPU 0 instructions: 100000002 cycles: 25000063 heartbeat IPC: 4 cumulative IPC: 3.99999 (Simulation time: 0 hr 2 min 52 sec) 
Heartbeat CPU 0 instructions: 110000002 cycles: 27500063 heartbeat IPC: 4 cumulative IPC: 3.99999 (Simulation time: 0 hr 3 min 9 sec) 
Heartbeat CPU 0 instructions: 120000002 cycles: 30000063 heartbeat IPC: 4 cumulative IPC: 3.99999 (Simulation time: 0 hr 3 min 26 sec) 
Heartbeat CPU 0 instructions: 130000002 cycles: 32500063 heartbeat IPC: 4 cumulative IPC: 3.99999 (Simulation time: 0 hr 3 min 43 sec) 
Heartbeat CPU 0 instructions: 140000002 cycles: 35000063 heartbeat IPC: 4 cumulative IPC: 3.99999 (Simulation time: 0 hr 4 min 0 sec) 
Heartbeat CPU 0 instructions: 150000002 cycles: 37500063 heartbeat IPC: 4 cumulative IPC: 3.99999 (Simulation time: 0 hr 4 min 18 sec) 
Heartbeat CPU 0 instructions: 160000002 cycles: 40000063 heartbeat IPC: 4 cumulative IPC: 3.99999 (Simulation time: 0 hr 4 min 35 sec) 
Heartbeat CPU 0 instructions: 170000002 cycles: 42500063 heartbeat IPC: 4 cumulative IPC: 3.99999 (Simulation time: 0 hr 4 min 52 sec) 
Heartbeat CPU 0 instructions: 180000002 cycles: 45000063 heartbeat IPC: 4 cumulative IPC: 3.99999 (Simulation time: 0 hr 5 min 9 sec) 
Heartbeat CPU 0 instructions: 190000002 cycles: 47500063 heartbeat IPC: 4 cumulative IPC: 3.99999 (Simulation time: 0 hr 5 min 26 sec) 
Heartbeat CPU 0 instructions: 200000002 cycles: 50000063 heartbeat IPC: 4 cumulative IPC: 3.99999 (Simulation time: 0 hr 5 min 43 sec) 

Warmup complete CPU 0 instructions: 200000002 cycles: 50000063 (Simulation time: 0 hr 5 min 43 sec) 

Heartbeat CPU 0 instructions: 210000000 cycles: 53285695 heartbeat IPC: 3.04355 cumulative IPC: 3.04355 (Simulation time: 0 hr 6 min 0 sec) 
Heartbeat CPU 0 instructions: 220000002 cycles: 56571118 heartbeat IPC: 3.04375 cumulative IPC: 3.04365 (Simulation time: 0 hr 6 min 17 sec) 
Heartbeat CPU 0 instructions: 230000004 cycles: 59856957 heartbeat IPC: 3.04336 cumulative IPC: 3.04356 (Simulation time: 0 hr 6 min 35 sec) 
Heartbeat CPU 0 instructions: 240000001 cycles: 63142363 heartbeat IPC: 3.04376 cumulative IPC: 3.04361 (Simulation time: 0 hr 6 min 52 sec) 
Heartbeat CPU 0 instructions: 250000002 cycles: 66427988 heartbeat IPC: 3.04356 cumulative IPC: 3.0436 (Simulation time: 0 hr 7 min 9 sec) 
Heartbeat CPU 0 instructions: 260000001 cycles: 69713200 heartbeat IPC: 3.04394 cumulative IPC: 3.04366 (Simulation time: 0 hr 7 min 26 sec) 
Heartbeat CPU 0 instructions: 270000001 cycles: 72998742 heartbeat IPC: 3.04364 cumulative IPC: 3.04365 (Simulation time: 0 hr 7 min 43 sec) 
Heartbeat CPU 0 instructions: 280000000 cycles: 76284100 heartbeat IPC: 3.04381 cumulative IPC: 3.04367 (Simulation time: 0 hr 8 min 1 sec) 
Heartbeat CPU 0 instructions: 290000000 cycles: 79569914 heartbeat IPC: 3.04339 cumulative IPC: 3.04364 (Simulation time: 0 hr 8 min 18 sec) 
Heartbeat CPU 0 instructions: 300000000 cycles: 82855243 heartbeat IPC: 3.04384 cumulative IPC: 3.04366 (Simulation time: 0 hr 8 min 35 sec) 
Heartbeat CPU 0 instructions: 310000003 cycles: 86140793 heartbeat IPC: 3.04363 cumulative IPC: 3.04366 (Simulation time: 0 hr 8 min 52 sec) 
Heartbeat CPU 0 instructions: 320000003 cycles: 89426436 heartbeat IPC: 3.04354 cumulative IPC: 3.04365 (Simulation time: 0 hr 9 min 9 sec) 
Heartbeat CPU 0 instructions: 330000000 cycles: 92712811 heartbeat IPC: 3.04287 cumulative IPC: 3.04359 (Simulation time: 0 hr 9 min 27 sec) 
Heartbeat CPU 0 instructions: 340000002 cycles: 95997963 heartbeat IPC: 3.044 cumulative IPC: 3.04362 (Simulation time: 0 hr 9 min 44 sec) 
Heartbeat CPU 0 instructions: 350000003 cycles: 99283052 heartbeat IPC: 3.04406 cumulative IPC: 3.04365 (Simulation time: 0 hr 10 min 1 sec) 
Heartbeat CPU 0 instructions: 360000004 cycles: 102569250 heartbeat IPC: 3.04303 cumulative IPC: 3.04361 (Simulation time: 0 hr 10 min 18 sec) 
Heartbeat CPU 0 instructions: 370000003 cycles: 105855090 heartbeat IPC: 3.04336 cumulative IPC: 3.04359 (Simulation time: 0 hr 10 min 36 sec) 
Heartbeat CPU 0 instructions: 380000001 cycles: 109140343 heartbeat IPC: 3.04391 cumulative IPC: 3.04361 (Simulation time: 0 hr 10 min 53 sec) 
Heartbeat CPU 0 instructions: 390000000 cycles: 112425711 heartbeat IPC: 3.0438 cumulative IPC: 3.04362 (Simulation time: 0 hr 11 min 10 sec) 
Heartbeat CPU 0 instructions: 400000000 cycles: 115711261 heartbeat IPC: 3.04363 cumulative IPC: 3.04362 (Simulation time: 0 hr 11 min 27 sec) 
Heartbeat CPU 0 instructions: 410000003 cycles: 118996302 heartbeat IPC: 3.0441 cumulative IPC: 3.04364 (Simulation time: 0 hr 11 min 44 sec) 
Heartbeat CPU 0 instructions: 420000003 cycles: 122281963 heartbeat IPC: 3.04353 cumulative IPC: 3.04364 (Simulation time: 0 hr 12 min 2 sec) 
Heartbeat CPU 0 instructions: 430000002 cycles: 125567759 heartbeat IPC: 3.0434 cumulative IPC: 3.04363 (Simulation time: 0 hr 12 min 19 sec) 
Heartbeat CPU 0 instructions: 440000001 cycles: 128853287 heartbeat IPC: 3.04365 cumulative IPC: 3.04363 (Simulation time: 0 hr 12 min 36 sec) 
Heartbeat CPU 0 instructions: 450000001 cycles: 132138686 heartbeat IPC: 3.04377 cumulative IPC: 3.04364 (Simulation time: 0 hr 12 min 53 sec) 
Heartbeat CPU 0 instructions: 460000001 cycles: 135424284 heartbeat IPC: 3.04359 cumulative IPC: 3.04363 (Simulation time: 0 hr 13 min 10 sec) 
Heartbeat CPU 0 instructions: 470000000 cycles: 138709962 heartbeat IPC: 3.04351 cumulative IPC: 3.04363 (Simulation time: 0 hr 13 min 27 sec) 
Heartbeat CPU 0 instructions: 480000001 cycles: 141995162 heartbeat IPC: 3.04396 cumulative IPC: 3.04364 (Simulation time: 0 hr 13 min 45 sec) 
Heartbeat CPU 0 instructions: 490000004 cycles: 145280907 heartbeat IPC: 3.04345 cumulative IPC: 3.04363 (Simulation time: 0 hr 14 min 2 sec) 
Heartbeat CPU 0 instructions: 500000004 cycles: 148566318 heartbeat IPC: 3.04376 cumulative IPC: 3.04364 (Simulation time: 0 hr 14 min 19 sec) 
Heartbeat CPU 0 instructions: 510000002 cycles: 151851823 heartbeat IPC: 3.04367 cumulative IPC: 3.04364 (Simulation time: 0 hr 14 min 36 sec) 
Heartbeat CPU 0 instructions: 520000001 cycles: 155137162 heartbeat IPC: 3.04383 cumulative IPC: 3.04364 (Simulation time: 0 hr 14 min 53 sec) 
Heartbeat CPU 0 instructions: 530000002 cycles: 158422871 heartbeat IPC: 3.04348 cumulative IPC: 3.04364 (Simulation time: 0 hr 15 min 10 sec) 
Heartbeat CPU 0 instructions: 540000004 cycles: 161708011 heartbeat IPC: 3.04401 cumulative IPC: 3.04365 (Simulation time: 0 hr 15 min 27 sec) 
Heartbeat CPU 0 instructions: 550000003 cycles: 164993699 heartbeat IPC: 3.0435 cumulative IPC: 3.04365 (Simulation time: 0 hr 15 min 44 sec) 
Heartbeat CPU 0 instructions: 560000002 cycles: 168280093 heartbeat IPC: 3.04285 cumulative IPC: 3.04362 (Simulation time: 0 hr 16 min 2 sec) 
Heartbeat CPU 0 instructions: 570000003 cycles: 171565990 heartbeat IPC: 3.04331 cumulative IPC: 3.04362 (Simulation time: 0 hr 16 min 19 sec) 
Heartbeat CPU 0 instructions: 580000000 cycles: 174851367 heartbeat IPC: 3.04379 cumulative IPC: 3.04362 (Simulation time: 0 hr 16 min 37 sec) 
Heartbeat CPU 0 instructions: 590000000 cycles: 178136343 heartbeat IPC: 3.04416 cumulative IPC: 3.04363 (Simulation time: 0 hr 16 min 54 sec) 
Heartbeat CPU 0 instructions: 600000002 cycles: 181421937 heartbeat IPC: 3.04359 cumulative IPC: 3.04363 (Simulation time: 0 hr 17 min 11 sec) 
Heartbeat CPU 0 instructions: 610000001 cycles: 184707421 heartbeat IPC: 3.04369 cumulative IPC: 3.04363 (Simulation time: 0 hr 17 min 28 sec) 
Heartbeat CPU 0 instructions: 620000001 cycles: 187992424 heartbeat IPC: 3.04414 cumulative IPC: 3.04365 (Simulation time: 0 hr 17 min 45 sec) 
Heartbeat CPU 0 instructions: 630000003 cycles: 191277704 heartbeat IPC: 3.04388 cumulative IPC: 3.04365 (Simulation time: 0 hr 18 min 2 sec) 
Heartbeat CPU 0 instructions: 640000003 cycles: 194563176 heartbeat IPC: 3.0437 cumulative IPC: 3.04365 (Simulation time: 0 hr 18 min 19 sec) 
Heartbeat CPU 0 instructions: 650000004 cycles: 197848138 heartbeat IPC: 3.04418 cumulative IPC: 3.04366 (Simulation time: 0 hr 18 min 37 sec) 
Heartbeat CPU 0 instructions: 660000003 cycles: 201133658 heartbeat IPC: 3.04366 cumulative IPC: 3.04366 (Simulation time: 0 hr 18 min 54 sec) 
Heartbeat CPU 0 instructions: 670000001 cycles: 204419602 heartbeat IPC: 3.04326 cumulative IPC: 3.04366 (Simulation time: 0 hr 19 min 11 sec) 
Heartbeat CPU 0 instructions: 680000003 cycles: 207705610 heartbeat IPC: 3.04321 cumulative IPC: 3.04365 (Simulation time: 0 hr 19 min 28 sec) 
Heartbeat CPU 0 instructions: 690000002 cycles: 210991044 heartbeat IPC: 3.04374 cumulative IPC: 3.04365 (Simulation time: 0 hr 19 min 45 sec) 
Heartbeat CPU 0 instructions: 700000002 cycles: 214276605 heartbeat IPC: 3.04362 cumulative IPC: 3.04365 (Simulation time: 0 hr 20 min 2 sec) 
Finished CPU 0 instructions: 500000000 cycles: 164276542 cumulative IPC: 3.04365 (Simulation time: 0 hr 20 min 2 sec) 

ChampSim completed all CPUs

Region of Interest Statistics

CPU 0 cumulative IPC: 3.04365 instructions: 500000000 cycles: 164276542
cpu0_DTLB TOTAL     ACCESS:   38818111  HIT:   38808974  MISS:       9137
cpu0_DTLB LOAD      ACCESS:   38803609  HIT:   38794878  MISS:       8731
cpu0_DTLB RFO       ACCESS:      14502  HIT:      14096  MISS:        406
cpu0_DTLB PREFETCH  ACCESS:          0  HIT:          0  MISS:          0
cpu0_DTLB WRITEBACK ACCESS:          0  HIT:          0  MISS:          0
cpu0_DTLB TRANSLATION ACCESS:          0  HIT:          0  MISS:          0
cpu0_DTLB PREFETCH  REQUESTED:          0  ISSUED:          0  USEFUL:          0  USELESS:          0
cpu0_DTLB AVERAGE MISS LATENCY: 15.966 cycles
cpu0_ITLB TOTAL     ACCESS:   17496611  HIT:   17496611  MISS:          0
cpu0_ITLB LOAD      ACCESS:   17496611  HIT:   17496611  MISS:          0
cpu0_ITLB RFO       ACCESS:          0  HIT:          0  MISS:          0
cpu0_ITLB PREFETCH  ACCESS:          0  HIT:          0  MISS:          0
cpu0_ITLB WRITEBACK ACCESS:          0  HIT:          0  MISS:          0
cpu0_ITLB TRANSLATION ACCESS:          0  HIT:          0  MISS:          0
cpu0_ITLB PREFETCH  REQUESTED:          0  ISSUED:          0  USEFUL:          0  USELESS:          0
cpu0_ITLB AVERAGE MISS LATENCY: -nan cycles
cpu0_STLB TOTAL     ACCESS:       9137  HIT:       8831  MISS:        306
cpu0_STLB LOAD      ACCESS:       8731  HIT:       8428  MISS:        303
cpu0_STLB RFO       ACCESS:        406  HIT:        403  MISS:          3
cpu0_STLB PREFETCH  ACCESS:          0  HIT:          0  MISS:          0
cpu0_STLB WRITEBACK ACCESS:          0  HIT:          0  MISS:          0
cpu0_STLB TRANSLATION ACCESS:          0  HIT:          0  MISS:          0
cpu0_STLB PREFETCH  REQUESTED:          0  ISSUED:          0  USEFUL:          0  USELESS:          0
cpu0_STLB AVERAGE MISS LATENCY: 208 cycles
cpu0_L1D TOTAL     ACCESS:   21475308  HIT:   21455779  MISS:      19529
cpu0_L1D LOAD      ACCESS:   21449894  HIT:   21430540  MISS:      19354
cpu0_L1D RFO       ACCESS:      25108  HIT:      24933  MISS:        175
cpu0_L1D PREFETCH  ACCESS:          0  HIT:          0  MISS:          0
cpu0_L1D WRITEBACK ACCESS:          0  HIT:          0  MISS:          0
cpu0_L1D TRANSLATION ACCESS:        306  HIT:        306  MISS:          0
cpu0_L1D PREFETCH  REQUESTED:          0  ISSUED:          0  USEFUL:          0  USELESS:          0
cpu0_L1D AVERAGE MISS LATENCY: 35.9708 cycles
cpu0_L2C TOTAL     ACCESS:      19529  HIT:          0  MISS:      19529
cpu0_L2C LOAD      ACCESS:      19354  HIT:          0  MISS:      19354
cpu0_L2C RFO       ACCESS:        175  HIT:          0  MISS:        175
cpu0_L2C PREFETCH  ACCESS:          0  HIT:          0  MISS:          0
cpu0_L2C WRITEBACK ACCESS:          0  HIT:          0  MISS:          0
cpu0_L2C TRANSLATION ACCESS:          0  HIT:          0  MISS:          0
cpu0_L2C PREFETCH  REQUESTED:          0  ISSUED:          0  USEFUL:          0  USELESS:          0
cpu0_L2C AVERAGE MISS LATENCY: 24.9708 cycles
LLC TOTAL     ACCESS:      38883  HIT:      19051  MISS:      19832
LLC LOAD      ACCESS:      19354  HIT:      19051  MISS:        303
LLC RFO       ACCESS:        175  HIT:          0  MISS:        175
LLC PREFETCH  ACCESS:      19354  HIT:          0  MISS:      19354
LLC WRITEBACK ACCESS:          0  HIT:          0  MISS:          0
LLC TRANSLATION ACCESS:          0  HIT:          0  MISS:          0
LLC PREFETCH  REQUESTED:      19354  ISSUED:      19354  USEFUL:      19051  USELESS:        224
LLC AVERAGE MISS LATENCY: 162.202 cycles

DRAM Statistics
 CHANNEL 0
 RQ ROW_BUFFER_HIT:          0  ROW_BUFFER_MISS:      19832
 DBUS AVG_CONGESTED_CYCLE: -
 WQ ROW_BUFFER_HIT:          0  ROW_BUFFER_MISS:          0  FULL:          0


CPU 0 Branch Prediction Accuracy: 99.3959% MPKI: 0.625214 Average ROB Occupancy at Mispredict: 185.372
Branch type MPKI
BRANCH_DIRECT_JUMP: 2e-06
BRANCH_INDIRECT: 0
BRANCH_CONDITIONAL: 0.625212
BRANCH_DIRECT_CALL: 0
BRANCH_INDIRECT_CALL: 0
BRANCH_RETURN: 0

