/home/caslab/workspace/sim/ChampSim/bin/champsim --warmup_instructions 200000000 --simulation_instructions 500000000/ /home/caslab/workspace/sim/traces/speccpu_by_champsim638.imagick_s-824B.champsimtrace.xz
start simulation for 638.imagick_s-824B.champsimtrace.xz

*** ChampSim Multicore Out-of-Order Simulator ***

Warmup Instructions: 200000000
Simulation Instructions: 500000000
Number of CPUs: 1
Off-chip DRAM Size: 4 GiB Channels: 1 Width: 64-bit Data Rate: 3200 MT/s

VirtualMemory physical capacity: 8588881920 num_ppages: 2096895
VirtualMemory page size: 4096 log2_page_size: 12

CPU 0 runs /home/caslab/workspace/sim/traces/speccpu_by_champsim/638.imagick_s-824B.champsimtrace.xz
CPU 0 Bimodal branch predictor
Basic BTB sets: 1024 ways: 8 indirect buffer size: 4096 RAS size: 64
LLC next line prefetcher
WARNING: The extended signature CACHE::prefetch_line(ip, base_addr, pf_addr, fill_this_level, prefetch_metadata) is deprecated.
WARNING: Use CACHE::prefetch_line(pf_addr, fill_this_level, prefetch_metadata) instead.
Heartbeat CPU 0 instructions: 10000000 cycles: 2500176 heartbeat IPC: 3.99972 cumulative IPC: 3.99972 (Simulation time: 0 hr 0 min 20 sec) 
Heartbeat CPU 0 instructions: 20000000 cycles: 5000181 heartbeat IPC: 3.99999 cumulative IPC: 3.99986 (Simulation time: 0 hr 0 min 40 sec) 
Heartbeat CPU 0 instructions: 30000001 cycles: 7500194 heartbeat IPC: 3.99998 cumulative IPC: 3.9999 (Simulation time: 0 hr 1 min 0 sec) 
Heartbeat CPU 0 instructions: 40000002 cycles: 10000252 heartbeat IPC: 3.99991 cumulative IPC: 3.9999 (Simulation time: 0 hr 1 min 19 sec) 
Heartbeat CPU 0 instructions: 50000001 cycles: 12500289 heartbeat IPC: 3.99994 cumulative IPC: 3.99991 (Simulation time: 0 hr 1 min 39 sec) 
Heartbeat CPU 0 instructions: 60000001 cycles: 15000362 heartbeat IPC: 3.99988 cumulative IPC: 3.9999 (Simulation time: 0 hr 1 min 59 sec) 
Heartbeat CPU 0 instructions: 70000001 cycles: 17500401 heartbeat IPC: 3.99994 cumulative IPC: 3.99991 (Simulation time: 0 hr 2 min 19 sec) 
Heartbeat CPU 0 instructions: 80000002 cycles: 20000443 heartbeat IPC: 3.99993 cumulative IPC: 3.99991 (Simulation time: 0 hr 2 min 39 sec) 
Heartbeat CPU 0 instructions: 90000002 cycles: 22500461 heartbeat IPC: 3.99997 cumulative IPC: 3.99992 (Simulation time: 0 hr 3 min 0 sec) 
Heartbeat CPU 0 instructions: 100000000 cycles: 25000510 heartbeat IPC: 3.99992 cumulative IPC: 3.99992 (Simulation time: 0 hr 3 min 19 sec) 
Heartbeat CPU 0 instructions: 110000001 cycles: 27500535 heartbeat IPC: 3.99996 cumulative IPC: 3.99992 (Simulation time: 0 hr 3 min 39 sec) 
Heartbeat CPU 0 instructions: 120000002 cycles: 30000594 heartbeat IPC: 3.99991 cumulative IPC: 3.99992 (Simulation time: 0 hr 3 min 59 sec) 
Heartbeat CPU 0 instructions: 130000002 cycles: 32500663 heartbeat IPC: 3.99989 cumulative IPC: 3.99992 (Simulation time: 0 hr 4 min 19 sec) 
Heartbeat CPU 0 instructions: 140000003 cycles: 35000701 heartbeat IPC: 3.99994 cumulative IPC: 3.99992 (Simulation time: 0 hr 4 min 39 sec) 
Heartbeat CPU 0 instructions: 150000000 cycles: 37500773 heartbeat IPC: 3.99988 cumulative IPC: 3.99992 (Simulation time: 0 hr 4 min 59 sec) 
Heartbeat CPU 0 instructions: 160000003 cycles: 40000815 heartbeat IPC: 3.99993 cumulative IPC: 3.99992 (Simulation time: 0 hr 5 min 19 sec) 
Heartbeat CPU 0 instructions: 170000000 cycles: 42500881 heartbeat IPC: 3.99989 cumulative IPC: 3.99992 (Simulation time: 0 hr 5 min 38 sec) 
Heartbeat CPU 0 instructions: 180000001 cycles: 45000926 heartbeat IPC: 3.99993 cumulative IPC: 3.99992 (Simulation time: 0 hr 5 min 58 sec) 
Heartbeat CPU 0 instructions: 190000001 cycles: 47501038 heartbeat IPC: 3.99982 cumulative IPC: 3.99991 (Simulation time: 0 hr 6 min 18 sec) 
Heartbeat CPU 0 instructions: 200000003 cycles: 50001079 heartbeat IPC: 3.99994 cumulative IPC: 3.99991 (Simulation time: 0 hr 6 min 38 sec) 

Warmup complete CPU 0 instructions: 200000003 cycles: 50001079 (Simulation time: 0 hr 6 min 38 sec) 

Heartbeat CPU 0 instructions: 210000000 cycles: 58391547 heartbeat IPC: 1.19183 cumulative IPC: 1.19183 (Simulation time: 0 hr 7 min 15 sec) 
Heartbeat CPU 0 instructions: 220000002 cycles: 66709125 heartbeat IPC: 1.20227 cumulative IPC: 1.19703 (Simulation time: 0 hr 7 min 53 sec) 
Heartbeat CPU 0 instructions: 230000000 cycles: 75092010 heartbeat IPC: 1.19291 cumulative IPC: 1.19565 (Simulation time: 0 hr 8 min 30 sec) 
Heartbeat CPU 0 instructions: 240000001 cycles: 83426540 heartbeat IPC: 1.19983 cumulative IPC: 1.19669 (Simulation time: 0 hr 9 min 8 sec) 
Heartbeat CPU 0 instructions: 250000001 cycles: 91787254 heartbeat IPC: 1.19607 cumulative IPC: 1.19657 (Simulation time: 0 hr 9 min 45 sec) 
Heartbeat CPU 0 instructions: 260000004 cycles: 100148932 heartbeat IPC: 1.19593 cumulative IPC: 1.19646 (Simulation time: 0 hr 10 min 22 sec) 
Heartbeat CPU 0 instructions: 270000002 cycles: 108479864 heartbeat IPC: 1.20035 cumulative IPC: 1.19702 (Simulation time: 0 hr 11 min 0 sec) 
Heartbeat CPU 0 instructions: 280000002 cycles: 116864635 heartbeat IPC: 1.19264 cumulative IPC: 1.19647 (Simulation time: 0 hr 11 min 37 sec) 
Heartbeat CPU 0 instructions: 290000003 cycles: 125168629 heartbeat IPC: 1.20424 cumulative IPC: 1.19733 (Simulation time: 0 hr 12 min 15 sec) 
Heartbeat CPU 0 instructions: 300000000 cycles: 133553031 heartbeat IPC: 1.19269 cumulative IPC: 1.19686 (Simulation time: 0 hr 12 min 53 sec) 
Heartbeat CPU 0 instructions: 310000004 cycles: 141847050 heartbeat IPC: 1.20569 cumulative IPC: 1.19766 (Simulation time: 0 hr 13 min 30 sec) 
Heartbeat CPU 0 instructions: 320000003 cycles: 150225786 heartbeat IPC: 1.1935 cumulative IPC: 1.19731 (Simulation time: 0 hr 14 min 8 sec) 
Heartbeat CPU 0 instructions: 330000000 cycles: 158528236 heartbeat IPC: 1.20446 cumulative IPC: 1.19786 (Simulation time: 0 hr 14 min 45 sec) 
Heartbeat CPU 0 instructions: 340000000 cycles: 166896639 heartbeat IPC: 1.19497 cumulative IPC: 1.19765 (Simulation time: 0 hr 15 min 23 sec) 
Heartbeat CPU 0 instructions: 350000000 cycles: 175195791 heartbeat IPC: 1.20494 cumulative IPC: 1.19813 (Simulation time: 0 hr 16 min 0 sec) 
Heartbeat CPU 0 instructions: 360000000 cycles: 183557866 heartbeat IPC: 1.19588 cumulative IPC: 1.19799 (Simulation time: 0 hr 16 min 38 sec) 
Heartbeat CPU 0 instructions: 370000004 cycles: 191858420 heartbeat IPC: 1.20474 cumulative IPC: 1.19839 (Simulation time: 0 hr 17 min 15 sec) 
Heartbeat CPU 0 instructions: 380000001 cycles: 200211668 heartbeat IPC: 1.19714 cumulative IPC: 1.19832 (Simulation time: 0 hr 17 min 53 sec) 
Heartbeat CPU 0 instructions: 390000000 cycles: 208526338 heartbeat IPC: 1.20269 cumulative IPC: 1.19855 (Simulation time: 0 hr 18 min 31 sec) 
Heartbeat CPU 0 instructions: 400000000 cycles: 216862890 heartbeat IPC: 1.19954 cumulative IPC: 1.1986 (Simulation time: 0 hr 19 min 9 sec) 
Heartbeat CPU 0 instructions: 410000003 cycles: 225189598 heartbeat IPC: 1.20096 cumulative IPC: 1.19871 (Simulation time: 0 hr 19 min 46 sec) 
Heartbeat CPU 0 instructions: 420000002 cycles: 233517828 heartbeat IPC: 1.20074 cumulative IPC: 1.1988 (Simulation time: 0 hr 20 min 24 sec) 
Heartbeat CPU 0 instructions: 430000002 cycles: 241875176 heartbeat IPC: 1.19655 cumulative IPC: 1.1987 (Simulation time: 0 hr 21 min 1 sec) 
Heartbeat CPU 0 instructions: 440000001 cycles: 250177439 heartbeat IPC: 1.20449 cumulative IPC: 1.19894 (Simulation time: 0 hr 21 min 38 sec) 
Heartbeat CPU 0 instructions: 450000000 cycles: 258545344 heartbeat IPC: 1.19504 cumulative IPC: 1.19879 (Simulation time: 0 hr 22 min 16 sec) 
Heartbeat CPU 0 instructions: 460000000 cycles: 266837988 heartbeat IPC: 1.20589 cumulative IPC: 1.19906 (Simulation time: 0 hr 22 min 53 sec) 
Heartbeat CPU 0 instructions: 470000000 cycles: 275205811 heartbeat IPC: 1.19505 cumulative IPC: 1.19891 (Simulation time: 0 hr 23 min 31 sec) 
Heartbeat CPU 0 instructions: 480000003 cycles: 283499206 heartbeat IPC: 1.20578 cumulative IPC: 1.19915 (Simulation time: 0 hr 24 min 8 sec) 
Heartbeat CPU 0 instructions: 490000000 cycles: 291873038 heartbeat IPC: 1.1942 cumulative IPC: 1.19898 (Simulation time: 0 hr 24 min 45 sec) 
Heartbeat CPU 0 instructions: 500000000 cycles: 300164661 heartbeat IPC: 1.20604 cumulative IPC: 1.19922 (Simulation time: 0 hr 25 min 23 sec) 
Heartbeat CPU 0 instructions: 510000000 cycles: 308538628 heartbeat IPC: 1.19418 cumulative IPC: 1.19905 (Simulation time: 0 hr 26 min 1 sec) 
Heartbeat CPU 0 instructions: 520000000 cycles: 316830953 heartbeat IPC: 1.20593 cumulative IPC: 1.19927 (Simulation time: 0 hr 26 min 39 sec) 
Heartbeat CPU 0 instructions: 530000004 cycles: 325202431 heartbeat IPC: 1.19453 cumulative IPC: 1.19912 (Simulation time: 0 hr 27 min 16 sec) 
Heartbeat CPU 0 instructions: 540000000 cycles: 333497210 heartbeat IPC: 1.20558 cumulative IPC: 1.19931 (Simulation time: 0 hr 27 min 53 sec) 
Heartbeat CPU 0 instructions: 550000001 cycles: 341861225 heartbeat IPC: 1.1956 cumulative IPC: 1.1992 (Simulation time: 0 hr 28 min 30 sec) 
Heartbeat CPU 0 instructions: 560000002 cycles: 350165295 heartbeat IPC: 1.20423 cumulative IPC: 1.19934 (Simulation time: 0 hr 29 min 8 sec) 
Heartbeat CPU 0 instructions: 570000003 cycles: 358528864 heartbeat IPC: 1.19566 cumulative IPC: 1.19924 (Simulation time: 0 hr 29 min 45 sec) 
Heartbeat CPU 0 instructions: 580000004 cycles: 366830825 heartbeat IPC: 1.20453 cumulative IPC: 1.19938 (Simulation time: 0 hr 30 min 23 sec) 
Heartbeat CPU 0 instructions: 590000002 cycles: 375192847 heartbeat IPC: 1.19588 cumulative IPC: 1.19929 (Simulation time: 0 hr 31 min 0 sec) 
Heartbeat CPU 0 instructions: 600000000 cycles: 383508583 heartbeat IPC: 1.20254 cumulative IPC: 1.19937 (Simulation time: 0 hr 31 min 37 sec) 
Heartbeat CPU 0 instructions: 610000003 cycles: 391855318 heartbeat IPC: 1.19807 cumulative IPC: 1.19934 (Simulation time: 0 hr 32 min 14 sec) 
Heartbeat CPU 0 instructions: 620000001 cycles: 400183832 heartbeat IPC: 1.20069 cumulative IPC: 1.19937 (Simulation time: 0 hr 32 min 52 sec) 
Heartbeat CPU 0 instructions: 630000000 cycles: 408515737 heartbeat IPC: 1.20021 cumulative IPC: 1.19939 (Simulation time: 0 hr 33 min 29 sec) 
Heartbeat CPU 0 instructions: 640000000 cycles: 416863533 heartbeat IPC: 1.19792 cumulative IPC: 1.19936 (Simulation time: 0 hr 34 min 7 sec) 
Heartbeat CPU 0 instructions: 650000000 cycles: 425173647 heartbeat IPC: 1.20335 cumulative IPC: 1.19945 (Simulation time: 0 hr 34 min 44 sec) 
Heartbeat CPU 0 instructions: 660000003 cycles: 433528711 heartbeat IPC: 1.19688 cumulative IPC: 1.19939 (Simulation time: 0 hr 35 min 21 sec) 
Heartbeat CPU 0 instructions: 670000002 cycles: 441825920 heartbeat IPC: 1.20522 cumulative IPC: 1.19952 (Simulation time: 0 hr 35 min 59 sec) 
Heartbeat CPU 0 instructions: 680000000 cycles: 450182174 heartbeat IPC: 1.19671 cumulative IPC: 1.19946 (Simulation time: 0 hr 36 min 36 sec) 
Heartbeat CPU 0 instructions: 690000002 cycles: 458471671 heartbeat IPC: 1.20635 cumulative IPC: 1.1996 (Simulation time: 0 hr 37 min 13 sec) 
Heartbeat CPU 0 instructions: 700000001 cycles: 466825078 heartbeat IPC: 1.19712 cumulative IPC: 1.19955 (Simulation time: 0 hr 37 min 51 sec) 
Finished CPU 0 instructions: 500000003 cycles: 416824000 cumulative IPC: 1.19955 (Simulation time: 0 hr 37 min 51 sec) 

ChampSim completed all CPUs

Region of Interest Statistics

CPU 0 cumulative IPC: 1.19955 instructions: 500000003 cycles: 416824000
cpu0_L1I TOTAL     ACCESS:   52223837  HIT:   52223837  MISS:          0
cpu0_L1I LOAD      ACCESS:   52223837  HIT:   52223837  MISS:          0
cpu0_L1I RFO       ACCESS:          0  HIT:          0  MISS:          0
cpu0_L1I PREFETCH  ACCESS:          0  HIT:          0  MISS:          0
cpu0_L1I WRITEBACK ACCESS:          0  HIT:          0  MISS:          0
cpu0_L1I TRANSLATION ACCESS:          0  HIT:          0  MISS:          0
cpu0_L1I PREFETCH  REQUESTED:          0  ISSUED:          0  USEFUL:          0  USELESS:          0
cpu0_L1I AVERAGE MISS LATENCY: -nan cycles
cpu0_DTLB TOTAL     ACCESS:   82804085  HIT:   82802443  MISS:       1642
cpu0_DTLB LOAD      ACCESS:   67606825  HIT:   67605183  MISS:       1642
cpu0_DTLB RFO       ACCESS:   15197260  HIT:   15197260  MISS:          0
cpu0_DTLB PREFETCH  ACCESS:          0  HIT:          0  MISS:          0
cpu0_DTLB WRITEBACK ACCESS:          0  HIT:          0  MISS:          0
cpu0_DTLB TRANSLATION ACCESS:          0  HIT:          0  MISS:          0
cpu0_DTLB PREFETCH  REQUESTED:          0  ISSUED:          0  USEFUL:          0  USELESS:          0
cpu0_DTLB AVERAGE MISS LATENCY: 217 cycles
cpu0_ITLB TOTAL     ACCESS:   28438940  HIT:   28438940  MISS:          0
cpu0_ITLB LOAD      ACCESS:   28438940  HIT:   28438940  MISS:          0
cpu0_ITLB RFO       ACCESS:          0  HIT:          0  MISS:          0
cpu0_ITLB PREFETCH  ACCESS:          0  HIT:          0  MISS:          0
cpu0_ITLB WRITEBACK ACCESS:          0  HIT:          0  MISS:          0
cpu0_ITLB TRANSLATION ACCESS:          0  HIT:          0  MISS:          0
cpu0_ITLB PREFETCH  REQUESTED:          0  ISSUED:          0  USEFUL:          0  USELESS:          0
cpu0_ITLB AVERAGE MISS LATENCY: -nan cycles
cpu0_STLB TOTAL     ACCESS:       1642  HIT:          0  MISS:       1642
cpu0_STLB LOAD      ACCESS:       1642  HIT:          0  MISS:       1642
cpu0_STLB RFO       ACCESS:          0  HIT:          0  MISS:          0
cpu0_STLB PREFETCH  ACCESS:          0  HIT:          0  MISS:          0
cpu0_STLB WRITEBACK ACCESS:          0  HIT:          0  MISS:          0
cpu0_STLB TRANSLATION ACCESS:          0  HIT:          0  MISS:          0
cpu0_STLB PREFETCH  REQUESTED:          0  ISSUED:          0  USEFUL:          0  USELESS:          0
cpu0_STLB AVERAGE MISS LATENCY: 208 cycles
cpu0_L1D TOTAL     ACCESS:   81762023  HIT:   81656990  MISS:     105033
cpu0_L1D LOAD      ACCESS:   56773847  HIT:   56668814  MISS:     105033
cpu0_L1D RFO       ACCESS:   24986534  HIT:   24986534  MISS:          0
cpu0_L1D PREFETCH  ACCESS:          0  HIT:          0  MISS:          0
cpu0_L1D WRITEBACK ACCESS:          0  HIT:          0  MISS:          0
cpu0_L1D TRANSLATION ACCESS:       1642  HIT:       1642  MISS:          0
cpu0_L1D PREFETCH  REQUESTED:          0  ISSUED:          0  USEFUL:          0  USELESS:          0
cpu0_L1D AVERAGE MISS LATENCY: 34.5356 cycles
cpu0_L2C TOTAL     ACCESS:     200534  HIT:      95501  MISS:     105033
cpu0_L2C LOAD      ACCESS:     105033  HIT:          0  MISS:     105033
cpu0_L2C RFO       ACCESS:          0  HIT:          0  MISS:          0
cpu0_L2C PREFETCH  ACCESS:          0  HIT:          0  MISS:          0
cpu0_L2C WRITEBACK ACCESS:      95501  HIT:      95501  MISS:          0
cpu0_L2C TRANSLATION ACCESS:          0  HIT:          0  MISS:          0
cpu0_L2C PREFETCH  REQUESTED:          0  ISSUED:          0  USEFUL:          0  USELESS:          0
cpu0_L2C AVERAGE MISS LATENCY: 23.5356 cycles
LLC TOTAL     ACCESS:     210066  HIT:     103391  MISS:     106675
LLC LOAD      ACCESS:     105033  HIT:     103391  MISS:       1642
LLC RFO       ACCESS:          0  HIT:          0  MISS:          0
LLC PREFETCH  ACCESS:     105033  HIT:          0  MISS:     105033
LLC WRITEBACK ACCESS:          0  HIT:          0  MISS:          0
LLC TRANSLATION ACCESS:          0  HIT:          0  MISS:          0
LLC PREFETCH  REQUESTED:     105033  ISSUED:     105033  USEFUL:     103391  USELESS:       1646
LLC AVERAGE MISS LATENCY: 74.6073 cycles

DRAM Statistics
 CHANNEL 0
 RQ ROW_BUFFER_HIT:      93439  ROW_BUFFER_MISS:      13236
 DBUS AVG_CONGESTED_CYCLE: -
 WQ ROW_BUFFER_HIT:          0  ROW_BUFFER_MISS:          0  FULL:          0


CPU 0 Branch Prediction Accuracy: 99.7834% MPKI: 0.349378 Average ROB Occupancy at Mispredict: 205.155
Branch type MPKI
BRANCH_DIRECT_JUMP: 0
BRANCH_INDIRECT: 2e-06
BRANCH_CONDITIONAL: 0.349376
BRANCH_DIRECT_CALL: 0
BRANCH_INDIRECT_CALL: 0
BRANCH_RETURN: 0

