/home/caslab/workspace/sim/ChampSim/bin/champsim --warmup_instructions 200000000 --simulation_instructions 500000000/ /home/caslab/workspace/sim/traces/speccpu_by_champsim641.leela_s-1052B.champsimtrace.xz
start simulation for 641.leela_s-1052B.champsimtrace.xz

*** ChampSim Multicore Out-of-Order Simulator ***

Warmup Instructions: 200000000
Simulation Instructions: 500000000
Number of CPUs: 1
Off-chip DRAM Size: 4 GiB Channels: 1 Width: 64-bit Data Rate: 3200 MT/s

VirtualMemory physical capacity: 8588881920 num_ppages: 2096895
VirtualMemory page size: 4096 log2_page_size: 12

CPU 0 runs /home/caslab/workspace/sim/traces/speccpu_by_champsim/641.leela_s-1052B.champsimtrace.xz
CPU 0 Bimodal branch predictor
Basic BTB sets: 1024 ways: 8 indirect buffer size: 4096 RAS size: 64
LLC next line prefetcher
WARNING: The extended signature CACHE::prefetch_line(ip, base_addr, pf_addr, fill_this_level, prefetch_metadata) is deprecated.
WARNING: Use CACHE::prefetch_line(pf_addr, fill_this_level, prefetch_metadata) instead.
Heartbeat CPU 0 instructions: 10000003 cycles: 2510178 heartbeat IPC: 3.98378 cumulative IPC: 3.98378 (Simulation time: 0 hr 0 min 21 sec) 
Heartbeat CPU 0 instructions: 20000002 cycles: 5019531 heartbeat IPC: 3.98509 cumulative IPC: 3.98444 (Simulation time: 0 hr 0 min 43 sec) 
Heartbeat CPU 0 instructions: 30000002 cycles: 7529641 heartbeat IPC: 3.98389 cumulative IPC: 3.98425 (Simulation time: 0 hr 1 min 3 sec) 
Heartbeat CPU 0 instructions: 40000001 cycles: 10039673 heartbeat IPC: 3.98401 cumulative IPC: 3.98419 (Simulation time: 0 hr 1 min 24 sec) 
Heartbeat CPU 0 instructions: 50000000 cycles: 12549036 heartbeat IPC: 3.98507 cumulative IPC: 3.98437 (Simulation time: 0 hr 1 min 45 sec) 
Heartbeat CPU 0 instructions: 60000001 cycles: 15057727 heartbeat IPC: 3.98614 cumulative IPC: 3.98467 (Simulation time: 0 hr 2 min 6 sec) 
Heartbeat CPU 0 instructions: 70000002 cycles: 17567755 heartbeat IPC: 3.98402 cumulative IPC: 3.98457 (Simulation time: 0 hr 2 min 27 sec) 
Heartbeat CPU 0 instructions: 80000003 cycles: 20077159 heartbeat IPC: 3.98501 cumulative IPC: 3.98463 (Simulation time: 0 hr 2 min 48 sec) 
Heartbeat CPU 0 instructions: 90000000 cycles: 22587205 heartbeat IPC: 3.98399 cumulative IPC: 3.98456 (Simulation time: 0 hr 3 min 9 sec) 
Heartbeat CPU 0 instructions: 100000000 cycles: 25096571 heartbeat IPC: 3.98507 cumulative IPC: 3.98461 (Simulation time: 0 hr 3 min 30 sec) 
Heartbeat CPU 0 instructions: 110000000 cycles: 27605940 heartbeat IPC: 3.98507 cumulative IPC: 3.98465 (Simulation time: 0 hr 3 min 51 sec) 
Heartbeat CPU 0 instructions: 120000003 cycles: 30115312 heartbeat IPC: 3.98506 cumulative IPC: 3.98468 (Simulation time: 0 hr 4 min 12 sec) 
Heartbeat CPU 0 instructions: 130000000 cycles: 32625340 heartbeat IPC: 3.98402 cumulative IPC: 3.98463 (Simulation time: 0 hr 4 min 33 sec) 
Heartbeat CPU 0 instructions: 140000003 cycles: 35134705 heartbeat IPC: 3.98507 cumulative IPC: 3.98466 (Simulation time: 0 hr 4 min 54 sec) 
Heartbeat CPU 0 instructions: 150000003 cycles: 37644058 heartbeat IPC: 3.98509 cumulative IPC: 3.98469 (Simulation time: 0 hr 5 min 15 sec) 
Heartbeat CPU 0 instructions: 160000002 cycles: 40153427 heartbeat IPC: 3.98507 cumulative IPC: 3.98472 (Simulation time: 0 hr 5 min 36 sec) 
Heartbeat CPU 0 instructions: 170000000 cycles: 42663498 heartbeat IPC: 3.98395 cumulative IPC: 3.98467 (Simulation time: 0 hr 5 min 57 sec) 
Heartbeat CPU 0 instructions: 180000003 cycles: 45172909 heartbeat IPC: 3.985 cumulative IPC: 3.98469 (Simulation time: 0 hr 6 min 18 sec) 
Heartbeat CPU 0 instructions: 190000000 cycles: 47683696 heartbeat IPC: 3.98281 cumulative IPC: 3.98459 (Simulation time: 0 hr 6 min 39 sec) 
Heartbeat CPU 0 instructions: 200000001 cycles: 50193126 heartbeat IPC: 3.98497 cumulative IPC: 3.98461 (Simulation time: 0 hr 7 min 1 sec) 

Warmup complete CPU 0 instructions: 200000001 cycles: 50193126 (Simulation time: 0 hr 7 min 1 sec) 

Heartbeat CPU 0 instructions: 210000002 cycles: 59799748 heartbeat IPC: 1.04095 cumulative IPC: 1.04095 (Simulation time: 0 hr 7 min 22 sec) 
Heartbeat CPU 0 instructions: 220000004 cycles: 69446969 heartbeat IPC: 1.03657 cumulative IPC: 1.03875 (Simulation time: 0 hr 7 min 43 sec) 
Heartbeat CPU 0 instructions: 230000003 cycles: 79249457 heartbeat IPC: 1.02015 cumulative IPC: 1.03248 (Simulation time: 0 hr 8 min 4 sec) 
Heartbeat CPU 0 instructions: 240000001 cycles: 89101828 heartbeat IPC: 1.01498 cumulative IPC: 1.02805 (Simulation time: 0 hr 8 min 25 sec) 
Heartbeat CPU 0 instructions: 250000001 cycles: 98915099 heartbeat IPC: 1.01903 cumulative IPC: 1.02623 (Simulation time: 0 hr 8 min 46 sec) 
Heartbeat CPU 0 instructions: 260000001 cycles: 108833344 heartbeat IPC: 1.00824 cumulative IPC: 1.02319 (Simulation time: 0 hr 9 min 7 sec) 
Heartbeat CPU 0 instructions: 270000001 cycles: 118646956 heartbeat IPC: 1.01899 cumulative IPC: 1.02259 (Simulation time: 0 hr 9 min 29 sec) 
Heartbeat CPU 0 instructions: 280000004 cycles: 128454313 heartbeat IPC: 1.01964 cumulative IPC: 1.02222 (Simulation time: 0 hr 9 min 50 sec) 
Heartbeat CPU 0 instructions: 290000003 cycles: 138294150 heartbeat IPC: 1.01628 cumulative IPC: 1.02155 (Simulation time: 0 hr 10 min 11 sec) 
Heartbeat CPU 0 instructions: 300000000 cycles: 148121077 heartbeat IPC: 1.01761 cumulative IPC: 1.02116 (Simulation time: 0 hr 10 min 32 sec) 
Heartbeat CPU 0 instructions: 310000000 cycles: 157930297 heartbeat IPC: 1.01945 cumulative IPC: 1.021 (Simulation time: 0 hr 10 min 53 sec) 
Heartbeat CPU 0 instructions: 320000000 cycles: 167763502 heartbeat IPC: 1.01696 cumulative IPC: 1.02067 (Simulation time: 0 hr 11 min 14 sec) 
Heartbeat CPU 0 instructions: 330000001 cycles: 177579977 heartbeat IPC: 1.0187 cumulative IPC: 1.02051 (Simulation time: 0 hr 11 min 35 sec) 
Heartbeat CPU 0 instructions: 340000002 cycles: 187426584 heartbeat IPC: 1.01558 cumulative IPC: 1.02016 (Simulation time: 0 hr 11 min 57 sec) 
Heartbeat CPU 0 instructions: 350000000 cycles: 197211800 heartbeat IPC: 1.02195 cumulative IPC: 1.02028 (Simulation time: 0 hr 12 min 18 sec) 
Heartbeat CPU 0 instructions: 360000001 cycles: 206998787 heartbeat IPC: 1.02176 cumulative IPC: 1.02037 (Simulation time: 0 hr 12 min 39 sec) 
Heartbeat CPU 0 instructions: 370000000 cycles: 216677527 heartbeat IPC: 1.03319 cumulative IPC: 1.02112 (Simulation time: 0 hr 13 min 0 sec) 
Heartbeat CPU 0 instructions: 380000003 cycles: 226252685 heartbeat IPC: 1.04437 cumulative IPC: 1.02238 (Simulation time: 0 hr 13 min 21 sec) 
Heartbeat CPU 0 instructions: 390000000 cycles: 235967685 heartbeat IPC: 1.02934 cumulative IPC: 1.02275 (Simulation time: 0 hr 13 min 42 sec) 
Heartbeat CPU 0 instructions: 400000001 cycles: 245570038 heartbeat IPC: 1.04141 cumulative IPC: 1.02366 (Simulation time: 0 hr 14 min 3 sec) 
Heartbeat CPU 0 instructions: 410000001 cycles: 255187770 heartbeat IPC: 1.03975 cumulative IPC: 1.02442 (Simulation time: 0 hr 14 min 24 sec) 
Heartbeat CPU 0 instructions: 420000000 cycles: 264923627 heartbeat IPC: 1.02713 cumulative IPC: 1.02454 (Simulation time: 0 hr 14 min 45 sec) 
Heartbeat CPU 0 instructions: 430000002 cycles: 274719610 heartbeat IPC: 1.02083 cumulative IPC: 1.02438 (Simulation time: 0 hr 15 min 6 sec) 
Heartbeat CPU 0 instructions: 440000000 cycles: 284527326 heartbeat IPC: 1.01961 cumulative IPC: 1.02418 (Simulation time: 0 hr 15 min 27 sec) 
Heartbeat CPU 0 instructions: 450000002 cycles: 294245949 heartbeat IPC: 1.02895 cumulative IPC: 1.02437 (Simulation time: 0 hr 15 min 48 sec) 
Heartbeat CPU 0 instructions: 460000003 cycles: 304038634 heartbeat IPC: 1.02117 cumulative IPC: 1.02425 (Simulation time: 0 hr 16 min 9 sec) 
Heartbeat CPU 0 instructions: 470000002 cycles: 313797870 heartbeat IPC: 1.02467 cumulative IPC: 1.02426 (Simulation time: 0 hr 16 min 30 sec) 
Heartbeat CPU 0 instructions: 480000001 cycles: 323602153 heartbeat IPC: 1.01996 cumulative IPC: 1.02411 (Simulation time: 0 hr 16 min 51 sec) 
Heartbeat CPU 0 instructions: 490000000 cycles: 333489864 heartbeat IPC: 1.01136 cumulative IPC: 1.02366 (Simulation time: 0 hr 17 min 13 sec) 
Heartbeat CPU 0 instructions: 500000004 cycles: 348619055 heartbeat IPC: 0.660974 cumulative IPC: 1.00527 (Simulation time: 0 hr 17 min 48 sec) 
Heartbeat CPU 0 instructions: 510000002 cycles: 358510433 heartbeat IPC: 1.01098 cumulative IPC: 1.00546 (Simulation time: 0 hr 18 min 10 sec) 
Heartbeat CPU 0 instructions: 520000003 cycles: 368203188 heartbeat IPC: 1.0317 cumulative IPC: 1.00626 (Simulation time: 0 hr 18 min 31 sec) 
Heartbeat CPU 0 instructions: 530000000 cycles: 378013679 heartbeat IPC: 1.01932 cumulative IPC: 1.00665 (Simulation time: 0 hr 18 min 52 sec) 
Heartbeat CPU 0 instructions: 540000000 cycles: 387798011 heartbeat IPC: 1.02204 cumulative IPC: 1.00709 (Simulation time: 0 hr 19 min 14 sec) 
Heartbeat CPU 0 instructions: 550000001 cycles: 397648923 heartbeat IPC: 1.01513 cumulative IPC: 1.00732 (Simulation time: 0 hr 19 min 35 sec) 
Heartbeat CPU 0 instructions: 560000002 cycles: 407372066 heartbeat IPC: 1.02847 cumulative IPC: 1.0079 (Simulation time: 0 hr 19 min 57 sec) 
Heartbeat CPU 0 instructions: 570000003 cycles: 417139427 heartbeat IPC: 1.02382 cumulative IPC: 1.00832 (Simulation time: 0 hr 20 min 18 sec) 
Heartbeat CPU 0 instructions: 580000003 cycles: 426962514 heartbeat IPC: 1.01801 cumulative IPC: 1.00857 (Simulation time: 0 hr 20 min 39 sec) 
Heartbeat CPU 0 instructions: 590000003 cycles: 436666813 heartbeat IPC: 1.03047 cumulative IPC: 1.00912 (Simulation time: 0 hr 21 min 0 sec) 
Heartbeat CPU 0 instructions: 600000000 cycles: 446381786 heartbeat IPC: 1.02934 cumulative IPC: 1.00962 (Simulation time: 0 hr 21 min 22 sec) 
Heartbeat CPU 0 instructions: 610000000 cycles: 456182208 heartbeat IPC: 1.02036 cumulative IPC: 1.00988 (Simulation time: 0 hr 21 min 44 sec) 
Heartbeat CPU 0 instructions: 620000004 cycles: 465937543 heartbeat IPC: 1.02508 cumulative IPC: 1.01024 (Simulation time: 0 hr 22 min 6 sec) 
Heartbeat CPU 0 instructions: 630000002 cycles: 475664879 heartbeat IPC: 1.02803 cumulative IPC: 1.01064 (Simulation time: 0 hr 22 min 27 sec) 
Heartbeat CPU 0 instructions: 640000002 cycles: 485386914 heartbeat IPC: 1.02859 cumulative IPC: 1.01104 (Simulation time: 0 hr 22 min 48 sec) 
Heartbeat CPU 0 instructions: 650000002 cycles: 495101103 heartbeat IPC: 1.02942 cumulative IPC: 1.01145 (Simulation time: 0 hr 23 min 10 sec) 
Heartbeat CPU 0 instructions: 660000003 cycles: 504941952 heartbeat IPC: 1.01617 cumulative IPC: 1.01155 (Simulation time: 0 hr 23 min 31 sec) 
Heartbeat CPU 0 instructions: 670000002 cycles: 514619866 heartbeat IPC: 1.03328 cumulative IPC: 1.012 (Simulation time: 0 hr 23 min 53 sec) 
Heartbeat CPU 0 instructions: 680000002 cycles: 524401106 heartbeat IPC: 1.02237 cumulative IPC: 1.01221 (Simulation time: 0 hr 24 min 15 sec) 
Heartbeat CPU 0 instructions: 690000000 cycles: 534059257 heartbeat IPC: 1.03539 cumulative IPC: 1.01268 (Simulation time: 0 hr 24 min 37 sec) 
Heartbeat CPU 0 instructions: 700000001 cycles: 543698771 heartbeat IPC: 1.0374 cumulative IPC: 1.01316 (Simulation time: 0 hr 24 min 59 sec) 
Finished CPU 0 instructions: 500000000 cycles: 493505645 cumulative IPC: 1.01316 (Simulation time: 0 hr 24 min 59 sec) 

ChampSim completed all CPUs

Region of Interest Statistics

CPU 0 cumulative IPC: 1.01316 instructions: 500000000 cycles: 493505645
cpu0_L1I TOTAL     ACCESS:   33008207  HIT:   33007757  MISS:        450
cpu0_L1I LOAD      ACCESS:   33008207  HIT:   33007757  MISS:        450
cpu0_L1I RFO       ACCESS:          0  HIT:          0  MISS:          0
cpu0_L1I PREFETCH  ACCESS:          0  HIT:          0  MISS:          0
cpu0_L1I WRITEBACK ACCESS:          0  HIT:          0  MISS:          0
cpu0_L1I TRANSLATION ACCESS:          0  HIT:          0  MISS:          0
cpu0_L1I PREFETCH  REQUESTED:          0  ISSUED:          0  USEFUL:          0  USELESS:          0
cpu0_L1I AVERAGE MISS LATENCY: 115.571 cycles
cpu0_DTLB TOTAL     ACCESS:   95765983  HIT:   95717530  MISS:      48453
cpu0_DTLB LOAD      ACCESS:   66285192  HIT:   66239798  MISS:      45394
cpu0_DTLB RFO       ACCESS:   29480791  HIT:   29477732  MISS:       3059
cpu0_DTLB PREFETCH  ACCESS:          0  HIT:          0  MISS:          0
cpu0_DTLB WRITEBACK ACCESS:          0  HIT:          0  MISS:          0
cpu0_DTLB TRANSLATION ACCESS:          0  HIT:          0  MISS:          0
cpu0_DTLB PREFETCH  REQUESTED:          0  ISSUED:          0  USEFUL:          0  USELESS:          0
cpu0_DTLB AVERAGE MISS LATENCY: 16.0613 cycles
cpu0_ITLB TOTAL     ACCESS:   56140555  HIT:   56140516  MISS:         39
cpu0_ITLB LOAD      ACCESS:   56140555  HIT:   56140516  MISS:         39
cpu0_ITLB RFO       ACCESS:          0  HIT:          0  MISS:          0
cpu0_ITLB PREFETCH  ACCESS:          0  HIT:          0  MISS:          0
cpu0_ITLB WRITEBACK ACCESS:          0  HIT:          0  MISS:          0
cpu0_ITLB TRANSLATION ACCESS:          0  HIT:          0  MISS:          0
cpu0_ITLB PREFETCH  REQUESTED:          0  ISSUED:          0  USEFUL:          0  USELESS:          0
cpu0_ITLB AVERAGE MISS LATENCY: 217.59 cycles
cpu0_STLB TOTAL     ACCESS:      48492  HIT:      46779  MISS:       1713
cpu0_STLB LOAD      ACCESS:      45433  HIT:      44632  MISS:        801
cpu0_STLB RFO       ACCESS:       3059  HIT:       2147  MISS:        912
cpu0_STLB PREFETCH  ACCESS:          0  HIT:          0  MISS:          0
cpu0_STLB WRITEBACK ACCESS:          0  HIT:          0  MISS:          0
cpu0_STLB TRANSLATION ACCESS:          0  HIT:          0  MISS:          0
cpu0_STLB PREFETCH  REQUESTED:          0  ISSUED:          0  USEFUL:          0  USELESS:          0
cpu0_STLB AVERAGE MISS LATENCY: 204.477 cycles
cpu0_L1D TOTAL     ACCESS:  134668106  HIT:  134549086  MISS:     119020
cpu0_L1D LOAD      ACCESS:   77936918  HIT:   77878061  MISS:      58857
cpu0_L1D RFO       ACCESS:   56729481  HIT:   56669323  MISS:      60158
cpu0_L1D PREFETCH  ACCESS:          0  HIT:          0  MISS:          0
cpu0_L1D WRITEBACK ACCESS:          0  HIT:          0  MISS:          0
cpu0_L1D TRANSLATION ACCESS:       1707  HIT:       1702  MISS:          5
cpu0_L1D PREFETCH  REQUESTED:          0  ISSUED:          0  USEFUL:          0  USELESS:          0
cpu0_L1D AVERAGE MISS LATENCY: 115.739 cycles
cpu0_L2C TOTAL     ACCESS:     156051  HIT:      65725  MISS:      90326
cpu0_L2C LOAD      ACCESS:      59307  HIT:      28231  MISS:      31076
cpu0_L2C RFO       ACCESS:      60158  HIT:        909  MISS:      59249
cpu0_L2C PREFETCH  ACCESS:          0  HIT:          0  MISS:          0
cpu0_L2C WRITEBACK ACCESS:      36581  HIT:      36581  MISS:          0
cpu0_L2C TRANSLATION ACCESS:          5  HIT:          4  MISS:          1
cpu0_L2C PREFETCH  REQUESTED:          0  ISSUED:          0  USEFUL:          0  USELESS:          0
cpu0_L2C AVERAGE MISS LATENCY: 138.529 cycles
LLC TOTAL     ACCESS:     100496  HIT:       8849  MISS:      91647
LLC LOAD      ACCESS:      31076  HIT:       7871  MISS:      23205
LLC RFO       ACCESS:      59249  HIT:         59  MISS:      59190
LLC PREFETCH  ACCESS:      10170  HIT:        919  MISS:       9251
LLC WRITEBACK ACCESS:          0  HIT:          0  MISS:          0
LLC TRANSLATION ACCESS:          1  HIT:          0  MISS:          1
LLC PREFETCH  REQUESTED:      31076  ISSUED:      31076  USEFUL:      24333  USELESS:       2428
LLC AVERAGE MISS LATENCY: 122.425 cycles

DRAM Statistics
 CHANNEL 0
 RQ ROW_BUFFER_HIT:      28274  ROW_BUFFER_MISS:      63373
 DBUS AVG_CONGESTED_CYCLE:    3.89933
 WQ ROW_BUFFER_HIT:          0  ROW_BUFFER_MISS:          0  FULL:          0


CPU 0 Branch Prediction Accuracy: 84.8686% MPKI: 25.3897 Average ROB Occupancy at Mispredict: 17.2018
Branch type MPKI
BRANCH_DIRECT_JUMP: 0.000196
BRANCH_INDIRECT: 0.001044
BRANCH_CONDITIONAL: 25.3878
BRANCH_DIRECT_CALL: 0.000314
BRANCH_INDIRECT_CALL: 5.2e-05
BRANCH_RETURN: 0.00029

