/home/caslab/workspace/sim/ChampSim/bin/champsim --warmup_instructions 200000000 --simulation_instructions 500000000/ /home/caslab/workspace/sim/traces/speccpu_by_champsim641.leela_s-334B.champsimtrace.xz
start simulation for 641.leela_s-334B.champsimtrace.xz

*** ChampSim Multicore Out-of-Order Simulator ***

Warmup Instructions: 200000000
Simulation Instructions: 500000000
Number of CPUs: 1
Off-chip DRAM Size: 4 GiB Channels: 1 Width: 64-bit Data Rate: 3200 MT/s

VirtualMemory physical capacity: 8588881920 num_ppages: 2096895
VirtualMemory page size: 4096 log2_page_size: 12

CPU 0 runs /home/caslab/workspace/sim/traces/speccpu_by_champsim/641.leela_s-334B.champsimtrace.xz
CPU 0 Bimodal branch predictor
Basic BTB sets: 1024 ways: 8 indirect buffer size: 4096 RAS size: 64
LLC next line prefetcher
WARNING: The extended signature CACHE::prefetch_line(ip, base_addr, pf_addr, fill_this_level, prefetch_metadata) is deprecated.
WARNING: Use CACHE::prefetch_line(pf_addr, fill_this_level, prefetch_metadata) instead.
Heartbeat CPU 0 instructions: 10000001 cycles: 2557380 heartbeat IPC: 3.91025 cumulative IPC: 3.91025 (Simulation time: 0 hr 0 min 22 sec) 
Heartbeat CPU 0 instructions: 20000001 cycles: 5113448 heartbeat IPC: 3.91226 cumulative IPC: 3.91126 (Simulation time: 0 hr 0 min 43 sec) 
Heartbeat CPU 0 instructions: 30000003 cycles: 7669517 heartbeat IPC: 3.91226 cumulative IPC: 3.91159 (Simulation time: 0 hr 1 min 4 sec) 
Heartbeat CPU 0 instructions: 40000000 cycles: 10226731 heartbeat IPC: 3.9105 cumulative IPC: 3.91132 (Simulation time: 0 hr 1 min 26 sec) 
Heartbeat CPU 0 instructions: 50000000 cycles: 12786617 heartbeat IPC: 3.90642 cumulative IPC: 3.91034 (Simulation time: 0 hr 1 min 47 sec) 
Heartbeat CPU 0 instructions: 60000000 cycles: 15342457 heartbeat IPC: 3.91261 cumulative IPC: 3.91072 (Simulation time: 0 hr 2 min 9 sec) 
Heartbeat CPU 0 instructions: 70000003 cycles: 17894390 heartbeat IPC: 3.9186 cumulative IPC: 3.91184 (Simulation time: 0 hr 2 min 30 sec) 
Heartbeat CPU 0 instructions: 80000003 cycles: 20451548 heartbeat IPC: 3.91059 cumulative IPC: 3.91168 (Simulation time: 0 hr 2 min 51 sec) 
Heartbeat CPU 0 instructions: 90000000 cycles: 23007474 heartbeat IPC: 3.91248 cumulative IPC: 3.91177 (Simulation time: 0 hr 3 min 13 sec) 
Heartbeat CPU 0 instructions: 100000001 cycles: 25562182 heartbeat IPC: 3.91434 cumulative IPC: 3.91203 (Simulation time: 0 hr 3 min 35 sec) 
Heartbeat CPU 0 instructions: 110000001 cycles: 28114662 heartbeat IPC: 3.91776 cumulative IPC: 3.91255 (Simulation time: 0 hr 3 min 56 sec) 
Heartbeat CPU 0 instructions: 120000003 cycles: 30669183 heartbeat IPC: 3.91463 cumulative IPC: 3.91272 (Simulation time: 0 hr 4 min 18 sec) 
Heartbeat CPU 0 instructions: 130000002 cycles: 33228280 heartbeat IPC: 3.90763 cumulative IPC: 3.91233 (Simulation time: 0 hr 4 min 39 sec) 
Heartbeat CPU 0 instructions: 140000003 cycles: 35782764 heartbeat IPC: 3.91469 cumulative IPC: 3.9125 (Simulation time: 0 hr 5 min 1 sec) 
Heartbeat CPU 0 instructions: 150000001 cycles: 38343614 heartbeat IPC: 3.90495 cumulative IPC: 3.91199 (Simulation time: 0 hr 5 min 22 sec) 
Heartbeat CPU 0 instructions: 160000003 cycles: 40905516 heartbeat IPC: 3.90335 cumulative IPC: 3.91145 (Simulation time: 0 hr 5 min 44 sec) 
Heartbeat CPU 0 instructions: 170000001 cycles: 43458637 heartbeat IPC: 3.91677 cumulative IPC: 3.91177 (Simulation time: 0 hr 6 min 5 sec) 
Heartbeat CPU 0 instructions: 180000001 cycles: 46016444 heartbeat IPC: 3.9096 cumulative IPC: 3.91165 (Simulation time: 0 hr 6 min 26 sec) 
Heartbeat CPU 0 instructions: 190000002 cycles: 48574860 heartbeat IPC: 3.90867 cumulative IPC: 3.91149 (Simulation time: 0 hr 6 min 48 sec) 
Heartbeat CPU 0 instructions: 200000001 cycles: 51168195 heartbeat IPC: 3.85604 cumulative IPC: 3.90868 (Simulation time: 0 hr 7 min 10 sec) 

Warmup complete CPU 0 instructions: 200000001 cycles: 51168195 (Simulation time: 0 hr 7 min 10 sec) 

Heartbeat CPU 0 instructions: 210000002 cycles: 62287538 heartbeat IPC: 0.899334 cumulative IPC: 0.899334 (Simulation time: 0 hr 7 min 34 sec) 
Heartbeat CPU 0 instructions: 220000001 cycles: 72403783 heartbeat IPC: 0.988509 cumulative IPC: 0.941815 (Simulation time: 0 hr 7 min 56 sec) 
Heartbeat CPU 0 instructions: 230000002 cycles: 82743476 heartbeat IPC: 0.967147 cumulative IPC: 0.95011 (Simulation time: 0 hr 8 min 19 sec) 
Heartbeat CPU 0 instructions: 240000000 cycles: 93094152 heartbeat IPC: 0.96612 cumulative IPC: 0.954063 (Simulation time: 0 hr 8 min 42 sec) 
Heartbeat CPU 0 instructions: 250000003 cycles: 103379635 heartbeat IPC: 0.972244 cumulative IPC: 0.957645 (Simulation time: 0 hr 9 min 4 sec) 
Heartbeat CPU 0 instructions: 260000001 cycles: 113340695 heartbeat IPC: 1.00391 cumulative IPC: 0.965057 (Simulation time: 0 hr 9 min 26 sec) 
Heartbeat CPU 0 instructions: 270000001 cycles: 123434618 heartbeat IPC: 0.990695 cumulative IPC: 0.968638 (Simulation time: 0 hr 9 min 48 sec) 
Heartbeat CPU 0 instructions: 280000003 cycles: 133485171 heartbeat IPC: 0.99497 cumulative IPC: 0.971853 (Simulation time: 0 hr 10 min 10 sec) 
Heartbeat CPU 0 instructions: 290000000 cycles: 143569552 heartbeat IPC: 0.991632 cumulative IPC: 0.974012 (Simulation time: 0 hr 10 min 33 sec) 
Heartbeat CPU 0 instructions: 300000000 cycles: 153715004 heartbeat IPC: 0.985663 cumulative IPC: 0.975164 (Simulation time: 0 hr 10 min 56 sec) 
Heartbeat CPU 0 instructions: 310000004 cycles: 163862866 heartbeat IPC: 0.98543 cumulative IPC: 0.976089 (Simulation time: 0 hr 11 min 18 sec) 
Heartbeat CPU 0 instructions: 320000002 cycles: 174053678 heartbeat IPC: 0.981276 cumulative IPC: 0.976519 (Simulation time: 0 hr 11 min 41 sec) 
Heartbeat CPU 0 instructions: 330000000 cycles: 184180770 heartbeat IPC: 0.98745 cumulative IPC: 0.977351 (Simulation time: 0 hr 12 min 4 sec) 
Heartbeat CPU 0 instructions: 340000003 cycles: 194282826 heartbeat IPC: 0.989898 cumulative IPC: 0.978237 (Simulation time: 0 hr 12 min 26 sec) 
Heartbeat CPU 0 instructions: 350000004 cycles: 204298607 heartbeat IPC: 0.998424 cumulative IPC: 0.979557 (Simulation time: 0 hr 12 min 49 sec) 
Heartbeat CPU 0 instructions: 360000002 cycles: 214231364 heartbeat IPC: 1.00677 cumulative IPC: 0.981215 (Simulation time: 0 hr 13 min 11 sec) 
Heartbeat CPU 0 instructions: 370000000 cycles: 224312858 heartbeat IPC: 0.991916 cumulative IPC: 0.981838 (Simulation time: 0 hr 13 min 33 sec) 
Heartbeat CPU 0 instructions: 380000004 cycles: 234425519 heartbeat IPC: 0.98886 cumulative IPC: 0.982225 (Simulation time: 0 hr 13 min 55 sec) 
Heartbeat CPU 0 instructions: 390000002 cycles: 244480400 heartbeat IPC: 0.994542 cumulative IPC: 0.982866 (Simulation time: 0 hr 14 min 17 sec) 
Heartbeat CPU 0 instructions: 400000000 cycles: 254512789 heartbeat IPC: 0.996771 cumulative IPC: 0.983552 (Simulation time: 0 hr 14 min 40 sec) 
Heartbeat CPU 0 instructions: 410000000 cycles: 264621935 heartbeat IPC: 0.989203 cumulative IPC: 0.98382 (Simulation time: 0 hr 15 min 3 sec) 
Heartbeat CPU 0 instructions: 420000003 cycles: 274650873 heartbeat IPC: 0.997115 cumulative IPC: 0.984416 (Simulation time: 0 hr 15 min 25 sec) 
Heartbeat CPU 0 instructions: 430000001 cycles: 284650392 heartbeat IPC: 1.00005 cumulative IPC: 0.985086 (Simulation time: 0 hr 15 min 47 sec) 
Heartbeat CPU 0 instructions: 440000001 cycles: 295879031 heartbeat IPC: 0.89058 cumulative IPC: 0.980749 (Simulation time: 0 hr 16 min 12 sec) 
Heartbeat CPU 0 instructions: 450000000 cycles: 306025203 heartbeat IPC: 0.985593 cumulative IPC: 0.980942 (Simulation time: 0 hr 16 min 34 sec) 
Heartbeat CPU 0 instructions: 460000002 cycles: 316091572 heartbeat IPC: 0.993407 cumulative IPC: 0.981416 (Simulation time: 0 hr 16 min 56 sec) 
Heartbeat CPU 0 instructions: 470000000 cycles: 326346946 heartbeat IPC: 0.975098 cumulative IPC: 0.98118 (Simulation time: 0 hr 17 min 18 sec) 
Heartbeat CPU 0 instructions: 480000000 cycles: 336390999 heartbeat IPC: 0.995614 cumulative IPC: 0.981689 (Simulation time: 0 hr 17 min 40 sec) 
Heartbeat CPU 0 instructions: 490000001 cycles: 346378536 heartbeat IPC: 1.00125 cumulative IPC: 0.98235 (Simulation time: 0 hr 18 min 2 sec) 
Heartbeat CPU 0 instructions: 500000002 cycles: 356375398 heartbeat IPC: 1.00031 cumulative IPC: 0.982939 (Simulation time: 0 hr 18 min 24 sec) 
Heartbeat CPU 0 instructions: 510000000 cycles: 366361474 heartbeat IPC: 1.00139 cumulative IPC: 0.983523 (Simulation time: 0 hr 18 min 46 sec) 
Heartbeat CPU 0 instructions: 520000004 cycles: 376474254 heartbeat IPC: 0.988848 cumulative IPC: 0.983689 (Simulation time: 0 hr 19 min 8 sec) 
Heartbeat CPU 0 instructions: 530000000 cycles: 386365491 heartbeat IPC: 1.011 cumulative IPC: 0.984495 (Simulation time: 0 hr 19 min 30 sec) 
Heartbeat CPU 0 instructions: 540000000 cycles: 396341106 heartbeat IPC: 1.00244 cumulative IPC: 0.985014 (Simulation time: 0 hr 19 min 52 sec) 
Heartbeat CPU 0 instructions: 550000004 cycles: 406223925 heartbeat IPC: 1.01186 cumulative IPC: 0.985761 (Simulation time: 0 hr 20 min 13 sec) 
Heartbeat CPU 0 instructions: 560000003 cycles: 416163546 heartbeat IPC: 1.00607 cumulative IPC: 0.986314 (Simulation time: 0 hr 20 min 35 sec) 
Heartbeat CPU 0 instructions: 570000002 cycles: 426107716 heartbeat IPC: 1.00561 cumulative IPC: 0.986826 (Simulation time: 0 hr 20 min 57 sec) 
Heartbeat CPU 0 instructions: 580000000 cycles: 436087786 heartbeat IPC: 1.002 cumulative IPC: 0.987219 (Simulation time: 0 hr 21 min 19 sec) 
Heartbeat CPU 0 instructions: 590000000 cycles: 446100755 heartbeat IPC: 0.998705 cumulative IPC: 0.98751 (Simulation time: 0 hr 21 min 41 sec) 
Heartbeat CPU 0 instructions: 600000000 cycles: 456120085 heartbeat IPC: 0.998071 cumulative IPC: 0.987772 (Simulation time: 0 hr 22 min 3 sec) 
Heartbeat CPU 0 instructions: 610000004 cycles: 466172779 heartbeat IPC: 0.994759 cumulative IPC: 0.987941 (Simulation time: 0 hr 22 min 25 sec) 
Heartbeat CPU 0 instructions: 620000001 cycles: 476195954 heartbeat IPC: 0.997688 cumulative IPC: 0.988171 (Simulation time: 0 hr 22 min 47 sec) 
Heartbeat CPU 0 instructions: 630000001 cycles: 486438342 heartbeat IPC: 0.976335 cumulative IPC: 0.987892 (Simulation time: 0 hr 23 min 9 sec) 
Heartbeat CPU 0 instructions: 640000000 cycles: 496754994 heartbeat IPC: 0.969307 cumulative IPC: 0.987462 (Simulation time: 0 hr 23 min 32 sec) 
Heartbeat CPU 0 instructions: 650000001 cycles: 507026769 heartbeat IPC: 0.973542 cumulative IPC: 0.987148 (Simulation time: 0 hr 23 min 55 sec) 
Heartbeat CPU 0 instructions: 660000002 cycles: 517272749 heartbeat IPC: 0.975993 cumulative IPC: 0.986903 (Simulation time: 0 hr 24 min 17 sec) 
Heartbeat CPU 0 instructions: 670000004 cycles: 527492829 heartbeat IPC: 0.978466 cumulative IPC: 0.986722 (Simulation time: 0 hr 24 min 40 sec) 
Heartbeat CPU 0 instructions: 680000003 cycles: 538828272 heartbeat IPC: 0.882189 cumulative IPC: 0.984292 (Simulation time: 0 hr 25 min 5 sec) 
Heartbeat CPU 0 instructions: 690000003 cycles: 549058888 heartbeat IPC: 0.977458 cumulative IPC: 0.984152 (Simulation time: 0 hr 25 min 27 sec) 
Heartbeat CPU 0 instructions: 700000003 cycles: 559346863 heartbeat IPC: 0.972009 cumulative IPC: 0.983906 (Simulation time: 0 hr 25 min 49 sec) 
Finished CPU 0 instructions: 500000002 cycles: 508178668 cumulative IPC: 0.983906 (Simulation time: 0 hr 25 min 49 sec) 

ChampSim completed all CPUs

Region of Interest Statistics

CPU 0 cumulative IPC: 0.983906 instructions: 500000002 cycles: 508178668
cpu0_L1I TOTAL     ACCESS:   26652436  HIT:   26652011  MISS:        425
cpu0_L1I LOAD      ACCESS:   26652436  HIT:   26652011  MISS:        425
cpu0_L1I RFO       ACCESS:          0  HIT:          0  MISS:          0
cpu0_L1I PREFETCH  ACCESS:          0  HIT:          0  MISS:          0
cpu0_L1I WRITEBACK ACCESS:          0  HIT:          0  MISS:          0
cpu0_L1I TRANSLATION ACCESS:          0  HIT:          0  MISS:          0
cpu0_L1I PREFETCH  REQUESTED:          0  ISSUED:          0  USEFUL:          0  USELESS:          0
cpu0_L1I AVERAGE MISS LATENCY: 111.809 cycles
cpu0_DTLB TOTAL     ACCESS:  102585679  HIT:  102545891  MISS:      39788
cpu0_DTLB LOAD      ACCESS:   68704095  HIT:   68667670  MISS:      36425
cpu0_DTLB RFO       ACCESS:   33881584  HIT:   33878221  MISS:       3363
cpu0_DTLB PREFETCH  ACCESS:          0  HIT:          0  MISS:          0
cpu0_DTLB WRITEBACK ACCESS:          0  HIT:          0  MISS:          0
cpu0_DTLB TRANSLATION ACCESS:          0  HIT:          0  MISS:          0
cpu0_DTLB PREFETCH  REQUESTED:          0  ISSUED:          0  USEFUL:          0  USELESS:          0
cpu0_DTLB AVERAGE MISS LATENCY: 11.9186 cycles
cpu0_ITLB TOTAL     ACCESS:   56357964  HIT:   56357926  MISS:         38
cpu0_ITLB LOAD      ACCESS:   56357964  HIT:   56357926  MISS:         38
cpu0_ITLB RFO       ACCESS:          0  HIT:          0  MISS:          0
cpu0_ITLB PREFETCH  ACCESS:          0  HIT:          0  MISS:          0
cpu0_ITLB WRITEBACK ACCESS:          0  HIT:          0  MISS:          0
cpu0_ITLB TRANSLATION ACCESS:          0  HIT:          0  MISS:          0
cpu0_ITLB PREFETCH  REQUESTED:          0  ISSUED:          0  USEFUL:          0  USELESS:          0
cpu0_ITLB AVERAGE MISS LATENCY: 217.026 cycles
cpu0_STLB TOTAL     ACCESS:      39826  HIT:      39228  MISS:        598
cpu0_STLB LOAD      ACCESS:      36463  HIT:      36105  MISS:        358
cpu0_STLB RFO       ACCESS:       3363  HIT:       3123  MISS:        240
cpu0_STLB PREFETCH  ACCESS:          0  HIT:          0  MISS:          0
cpu0_STLB WRITEBACK ACCESS:          0  HIT:          0  MISS:          0
cpu0_STLB TRANSLATION ACCESS:          0  HIT:          0  MISS:          0
cpu0_STLB PREFETCH  REQUESTED:          0  ISSUED:          0  USEFUL:          0  USELESS:          0
cpu0_STLB AVERAGE MISS LATENCY: 207.406 cycles
cpu0_L1D TOTAL     ACCESS:  136714220  HIT:  136682307  MISS:      31913
cpu0_L1D LOAD      ACCESS:   76549506  HIT:   76538844  MISS:      10662
cpu0_L1D RFO       ACCESS:   60164118  HIT:   60142871  MISS:      21247
cpu0_L1D PREFETCH  ACCESS:          0  HIT:          0  MISS:          0
cpu0_L1D WRITEBACK ACCESS:          0  HIT:          0  MISS:          0
cpu0_L1D TRANSLATION ACCESS:        596  HIT:        592  MISS:          4
cpu0_L1D PREFETCH  REQUESTED:          0  ISSUED:          0  USEFUL:          0  USELESS:          0
cpu0_L1D AVERAGE MISS LATENCY: 110.702 cycles
cpu0_L2C TOTAL     ACCESS:      39363  HIT:      16835  MISS:      22528
cpu0_L2C LOAD      ACCESS:      11087  HIT:       5161  MISS:       5926
cpu0_L2C RFO       ACCESS:      21247  HIT:       4645  MISS:      16602
cpu0_L2C PREFETCH  ACCESS:          0  HIT:          0  MISS:          0
cpu0_L2C WRITEBACK ACCESS:       7025  HIT:       7025  MISS:          0
cpu0_L2C TRANSLATION ACCESS:          4  HIT:          4  MISS:          0
cpu0_L2C PREFETCH  REQUESTED:          0  ISSUED:          0  USEFUL:          0  USELESS:          0
cpu0_L2C AVERAGE MISS LATENCY: 143.138 cycles
LLC TOTAL     ACCESS:      25473  HIT:        850  MISS:      24623
LLC LOAD      ACCESS:       5926  HIT:        484  MISS:       5442
LLC RFO       ACCESS:      16602  HIT:         25  MISS:      16577
LLC PREFETCH  ACCESS:       2945  HIT:        341  MISS:       2604
LLC WRITEBACK ACCESS:          0  HIT:          0  MISS:          0
LLC TRANSLATION ACCESS:          0  HIT:          0  MISS:          0
LLC PREFETCH  REQUESTED:       5926  ISSUED:       5926  USEFUL:       3070  USELESS:       1543
LLC AVERAGE MISS LATENCY: 121.672 cycles

DRAM Statistics
 CHANNEL 0
 RQ ROW_BUFFER_HIT:      10917  ROW_BUFFER_MISS:      13706
 DBUS AVG_CONGESTED_CYCLE:    3.90134
 WQ ROW_BUFFER_HIT:          0  ROW_BUFFER_MISS:          0  FULL:          0


CPU 0 Branch Prediction Accuracy: 86.2397% MPKI: 24.0272 Average ROB Occupancy at Mispredict: 19.8314
Branch type MPKI
BRANCH_DIRECT_JUMP: 0.000164
BRANCH_INDIRECT: 0.00268
BRANCH_CONDITIONAL: 24.0238
BRANCH_DIRECT_CALL: 0.000278
BRANCH_INDIRECT_CALL: 4.8e-05
BRANCH_RETURN: 0.000264

