/home/caslab/workspace/sim/ChampSim/bin/champsim --warmup_instructions 200000000 --simulation_instructions 500000000/ /home/caslab/workspace/sim/traces/speccpu_by_champsim641.leela_s-800B.champsimtrace.xz
start simulation for 641.leela_s-800B.champsimtrace.xz

*** ChampSim Multicore Out-of-Order Simulator ***

Warmup Instructions: 200000000
Simulation Instructions: 500000000
Number of CPUs: 1
Off-chip DRAM Size: 4 GiB Channels: 1 Width: 64-bit Data Rate: 3200 MT/s

VirtualMemory physical capacity: 8588881920 num_ppages: 2096895
VirtualMemory page size: 4096 log2_page_size: 12

CPU 0 runs /home/caslab/workspace/sim/traces/speccpu_by_champsim/641.leela_s-800B.champsimtrace.xz
CPU 0 Bimodal branch predictor
Basic BTB sets: 1024 ways: 8 indirect buffer size: 4096 RAS size: 64
LLC next line prefetcher
WARNING: The extended signature CACHE::prefetch_line(ip, base_addr, pf_addr, fill_this_level, prefetch_metadata) is deprecated.
WARNING: Use CACHE::prefetch_line(pf_addr, fill_this_level, prefetch_metadata) instead.
Heartbeat CPU 0 instructions: 10000000 cycles: 2508743 heartbeat IPC: 3.98606 cumulative IPC: 3.98606 (Simulation time: 0 hr 0 min 21 sec) 
Heartbeat CPU 0 instructions: 20000003 cycles: 5017381 heartbeat IPC: 3.98623 cumulative IPC: 3.98614 (Simulation time: 0 hr 0 min 42 sec) 
Heartbeat CPU 0 instructions: 30000003 cycles: 7524806 heartbeat IPC: 3.98816 cumulative IPC: 3.98681 (Simulation time: 0 hr 1 min 3 sec) 
Heartbeat CPU 0 instructions: 40000000 cycles: 10033437 heartbeat IPC: 3.98624 cumulative IPC: 3.98667 (Simulation time: 0 hr 1 min 24 sec) 
Heartbeat CPU 0 instructions: 50000000 cycles: 12541406 heartbeat IPC: 3.98729 cumulative IPC: 3.98679 (Simulation time: 0 hr 1 min 45 sec) 
Heartbeat CPU 0 instructions: 60000001 cycles: 15049467 heartbeat IPC: 3.98714 cumulative IPC: 3.98685 (Simulation time: 0 hr 2 min 6 sec) 
Heartbeat CPU 0 instructions: 70000002 cycles: 17558099 heartbeat IPC: 3.98624 cumulative IPC: 3.98676 (Simulation time: 0 hr 2 min 28 sec) 
Heartbeat CPU 0 instructions: 80000001 cycles: 20066134 heartbeat IPC: 3.98718 cumulative IPC: 3.98682 (Simulation time: 0 hr 2 min 49 sec) 
Heartbeat CPU 0 instructions: 90000001 cycles: 22574145 heartbeat IPC: 3.98722 cumulative IPC: 3.98686 (Simulation time: 0 hr 3 min 11 sec) 
Heartbeat CPU 0 instructions: 100000000 cycles: 25082121 heartbeat IPC: 3.98728 cumulative IPC: 3.9869 (Simulation time: 0 hr 3 min 32 sec) 
Heartbeat CPU 0 instructions: 110000000 cycles: 27589624 heartbeat IPC: 3.98803 cumulative IPC: 3.98701 (Simulation time: 0 hr 3 min 53 sec) 
Heartbeat CPU 0 instructions: 120000003 cycles: 30260005 heartbeat IPC: 3.74479 cumulative IPC: 3.96563 (Simulation time: 0 hr 4 min 16 sec) 
Heartbeat CPU 0 instructions: 130000003 cycles: 32767320 heartbeat IPC: 3.98833 cumulative IPC: 3.96737 (Simulation time: 0 hr 4 min 37 sec) 
Heartbeat CPU 0 instructions: 140000000 cycles: 35275289 heartbeat IPC: 3.98729 cumulative IPC: 3.96878 (Simulation time: 0 hr 4 min 58 sec) 
Heartbeat CPU 0 instructions: 150000000 cycles: 37783258 heartbeat IPC: 3.98729 cumulative IPC: 3.97001 (Simulation time: 0 hr 5 min 19 sec) 
Heartbeat CPU 0 instructions: 160000002 cycles: 40291334 heartbeat IPC: 3.98712 cumulative IPC: 3.97108 (Simulation time: 0 hr 5 min 40 sec) 
Heartbeat CPU 0 instructions: 170000002 cycles: 42799615 heartbeat IPC: 3.98679 cumulative IPC: 3.972 (Simulation time: 0 hr 6 min 1 sec) 
Heartbeat CPU 0 instructions: 180000002 cycles: 45308296 heartbeat IPC: 3.98616 cumulative IPC: 3.97278 (Simulation time: 0 hr 6 min 23 sec) 
Heartbeat CPU 0 instructions: 190000000 cycles: 47815644 heartbeat IPC: 3.98828 cumulative IPC: 3.97359 (Simulation time: 0 hr 6 min 44 sec) 
Heartbeat CPU 0 instructions: 200000000 cycles: 50323641 heartbeat IPC: 3.98725 cumulative IPC: 3.97428 (Simulation time: 0 hr 7 min 4 sec) 

Warmup complete CPU 0 instructions: 200000004 cycles: 50323642 (Simulation time: 0 hr 7 min 4 sec) 

Heartbeat CPU 0 instructions: 210000003 cycles: 60394693 heartbeat IPC: 0.992945 cumulative IPC: 0.992945 (Simulation time: 0 hr 7 min 26 sec) 
Heartbeat CPU 0 instructions: 220000000 cycles: 70554076 heartbeat IPC: 0.984311 cumulative IPC: 0.988609 (Simulation time: 0 hr 7 min 49 sec) 
Heartbeat CPU 0 instructions: 230000003 cycles: 80707202 heartbeat IPC: 0.984919 cumulative IPC: 0.987376 (Simulation time: 0 hr 8 min 11 sec) 
Heartbeat CPU 0 instructions: 240000001 cycles: 90881674 heartbeat IPC: 0.982852 cumulative IPC: 0.986241 (Simulation time: 0 hr 8 min 33 sec) 
Heartbeat CPU 0 instructions: 250000001 cycles: 101060047 heartbeat IPC: 0.982475 cumulative IPC: 0.985486 (Simulation time: 0 hr 8 min 56 sec) 
Heartbeat CPU 0 instructions: 260000003 cycles: 111168672 heartbeat IPC: 0.989254 cumulative IPC: 0.986112 (Simulation time: 0 hr 9 min 18 sec) 
Heartbeat CPU 0 instructions: 270000003 cycles: 121304224 heartbeat IPC: 0.986626 cumulative IPC: 0.986185 (Simulation time: 0 hr 9 min 40 sec) 
Heartbeat CPU 0 instructions: 280000002 cycles: 131368886 heartbeat IPC: 0.993575 cumulative IPC: 0.987103 (Simulation time: 0 hr 10 min 2 sec) 
Heartbeat CPU 0 instructions: 290000002 cycles: 141411966 heartbeat IPC: 0.99571 cumulative IPC: 0.988052 (Simulation time: 0 hr 10 min 24 sec) 
Heartbeat CPU 0 instructions: 300000001 cycles: 151550582 heartbeat IPC: 0.986328 cumulative IPC: 0.987879 (Simulation time: 0 hr 10 min 46 sec) 
Heartbeat CPU 0 instructions: 310000001 cycles: 161614469 heartbeat IPC: 0.993652 cumulative IPC: 0.988401 (Simulation time: 0 hr 11 min 8 sec) 
Heartbeat CPU 0 instructions: 320000000 cycles: 171725015 heartbeat IPC: 0.989066 cumulative IPC: 0.988457 (Simulation time: 0 hr 11 min 30 sec) 
Heartbeat CPU 0 instructions: 330000000 cycles: 181750420 heartbeat IPC: 0.997466 cumulative IPC: 0.989144 (Simulation time: 0 hr 11 min 52 sec) 
Heartbeat CPU 0 instructions: 340000001 cycles: 191868318 heartbeat IPC: 0.988348 cumulative IPC: 0.989087 (Simulation time: 0 hr 12 min 13 sec) 
Heartbeat CPU 0 instructions: 350000003 cycles: 201997788 heartbeat IPC: 0.987219 cumulative IPC: 0.988962 (Simulation time: 0 hr 12 min 35 sec) 
Heartbeat CPU 0 instructions: 360000000 cycles: 212100017 heartbeat IPC: 0.98988 cumulative IPC: 0.98902 (Simulation time: 0 hr 12 min 57 sec) 
Heartbeat CPU 0 instructions: 370000002 cycles: 222118732 heartbeat IPC: 0.998132 cumulative IPC: 0.989551 (Simulation time: 0 hr 13 min 19 sec) 
Heartbeat CPU 0 instructions: 380000002 cycles: 232319460 heartbeat IPC: 0.980322 cumulative IPC: 0.989034 (Simulation time: 0 hr 13 min 41 sec) 
Heartbeat CPU 0 instructions: 390000000 cycles: 242487233 heartbeat IPC: 0.983499 cumulative IPC: 0.988741 (Simulation time: 0 hr 14 min 3 sec) 
Heartbeat CPU 0 instructions: 400000003 cycles: 252586919 heartbeat IPC: 0.99013 cumulative IPC: 0.98881 (Simulation time: 0 hr 14 min 25 sec) 
Heartbeat CPU 0 instructions: 410000002 cycles: 262645774 heartbeat IPC: 0.994149 cumulative IPC: 0.989063 (Simulation time: 0 hr 14 min 47 sec) 
Heartbeat CPU 0 instructions: 420000000 cycles: 272834821 heartbeat IPC: 0.981446 cumulative IPC: 0.988714 (Simulation time: 0 hr 15 min 9 sec) 
Heartbeat CPU 0 instructions: 430000000 cycles: 283054207 heartbeat IPC: 0.978532 cumulative IPC: 0.988267 (Simulation time: 0 hr 15 min 31 sec) 
Heartbeat CPU 0 instructions: 440000004 cycles: 293101675 heartbeat IPC: 0.995276 cumulative IPC: 0.988557 (Simulation time: 0 hr 15 min 52 sec) 
Heartbeat CPU 0 instructions: 450000002 cycles: 303261127 heartbeat IPC: 0.984305 cumulative IPC: 0.988387 (Simulation time: 0 hr 16 min 14 sec) 
Heartbeat CPU 0 instructions: 460000001 cycles: 313382385 heartbeat IPC: 0.988019 cumulative IPC: 0.988372 (Simulation time: 0 hr 16 min 36 sec) 
Heartbeat CPU 0 instructions: 470000002 cycles: 323592503 heartbeat IPC: 0.979421 cumulative IPC: 0.988038 (Simulation time: 0 hr 16 min 58 sec) 
Heartbeat CPU 0 instructions: 480000000 cycles: 333780757 heartbeat IPC: 0.981522 cumulative IPC: 0.987804 (Simulation time: 0 hr 17 min 20 sec) 
Heartbeat CPU 0 instructions: 490000000 cycles: 343750669 heartbeat IPC: 1.00302 cumulative IPC: 0.988321 (Simulation time: 0 hr 17 min 41 sec) 
Heartbeat CPU 0 instructions: 500000002 cycles: 353776340 heartbeat IPC: 0.99744 cumulative IPC: 0.988622 (Simulation time: 0 hr 18 min 3 sec) 
Heartbeat CPU 0 instructions: 510000004 cycles: 363922294 heartbeat IPC: 0.985615 cumulative IPC: 0.988525 (Simulation time: 0 hr 18 min 25 sec) 
Heartbeat CPU 0 instructions: 520000000 cycles: 374202847 heartbeat IPC: 0.97271 cumulative IPC: 0.988023 (Simulation time: 0 hr 18 min 47 sec) 
Heartbeat CPU 0 instructions: 530000002 cycles: 384385012 heartbeat IPC: 0.98211 cumulative IPC: 0.987842 (Simulation time: 0 hr 19 min 9 sec) 
Heartbeat CPU 0 instructions: 540000001 cycles: 394532941 heartbeat IPC: 0.985423 cumulative IPC: 0.987771 (Simulation time: 0 hr 19 min 31 sec) 
Heartbeat CPU 0 instructions: 550000001 cycles: 404642763 heartbeat IPC: 0.989137 cumulative IPC: 0.98781 (Simulation time: 0 hr 19 min 53 sec) 
Heartbeat CPU 0 instructions: 560000002 cycles: 414779819 heartbeat IPC: 0.98648 cumulative IPC: 0.987773 (Simulation time: 0 hr 20 min 15 sec) 
Heartbeat CPU 0 instructions: 570000004 cycles: 424915724 heartbeat IPC: 0.986592 cumulative IPC: 0.987741 (Simulation time: 0 hr 20 min 37 sec) 
Heartbeat CPU 0 instructions: 580000003 cycles: 434952878 heartbeat IPC: 0.996298 cumulative IPC: 0.987964 (Simulation time: 0 hr 20 min 58 sec) 
Heartbeat CPU 0 instructions: 590000001 cycles: 445016318 heartbeat IPC: 0.993696 cumulative IPC: 0.988111 (Simulation time: 0 hr 21 min 20 sec) 
Heartbeat CPU 0 instructions: 600000002 cycles: 455074452 heartbeat IPC: 0.99422 cumulative IPC: 0.988262 (Simulation time: 0 hr 21 min 42 sec) 
Heartbeat CPU 0 instructions: 610000002 cycles: 465203288 heartbeat IPC: 0.98728 cumulative IPC: 0.988238 (Simulation time: 0 hr 22 min 4 sec) 
Heartbeat CPU 0 instructions: 620000004 cycles: 475364341 heartbeat IPC: 0.98415 cumulative IPC: 0.988141 (Simulation time: 0 hr 22 min 26 sec) 
Heartbeat CPU 0 instructions: 630000003 cycles: 485538335 heartbeat IPC: 0.982898 cumulative IPC: 0.988018 (Simulation time: 0 hr 22 min 48 sec) 
Heartbeat CPU 0 instructions: 640000002 cycles: 495747781 heartbeat IPC: 0.979485 cumulative IPC: 0.987823 (Simulation time: 0 hr 23 min 10 sec) 
Heartbeat CPU 0 instructions: 650000000 cycles: 505903655 heartbeat IPC: 0.984652 cumulative IPC: 0.987752 (Simulation time: 0 hr 23 min 32 sec) 
Heartbeat CPU 0 instructions: 660000002 cycles: 516006944 heartbeat IPC: 0.989777 cumulative IPC: 0.987796 (Simulation time: 0 hr 23 min 54 sec) 
Heartbeat CPU 0 instructions: 670000000 cycles: 526134154 heartbeat IPC: 0.987439 cumulative IPC: 0.987788 (Simulation time: 0 hr 24 min 16 sec) 
Heartbeat CPU 0 instructions: 680000004 cycles: 536315548 heartbeat IPC: 0.982184 cumulative IPC: 0.987671 (Simulation time: 0 hr 24 min 38 sec) 
Heartbeat CPU 0 instructions: 690000001 cycles: 546427600 heartbeat IPC: 0.988919 cumulative IPC: 0.987696 (Simulation time: 0 hr 25 min 0 sec) 
Heartbeat CPU 0 instructions: 700000001 cycles: 556559483 heartbeat IPC: 0.986983 cumulative IPC: 0.987682 (Simulation time: 0 hr 25 min 22 sec) 
Finished CPU 0 instructions: 500000001 cycles: 506235842 cumulative IPC: 0.987682 (Simulation time: 0 hr 25 min 22 sec) 

ChampSim completed all CPUs

Region of Interest Statistics

CPU 0 cumulative IPC: 0.987682 instructions: 500000001 cycles: 506235842
cpu0_L1I TOTAL     ACCESS:   47929017  HIT:   47929013  MISS:          4
cpu0_L1I LOAD      ACCESS:   47929017  HIT:   47929013  MISS:          4
cpu0_L1I RFO       ACCESS:          0  HIT:          0  MISS:          0
cpu0_L1I PREFETCH  ACCESS:          0  HIT:          0  MISS:          0
cpu0_L1I WRITEBACK ACCESS:          0  HIT:          0  MISS:          0
cpu0_L1I TRANSLATION ACCESS:          0  HIT:          0  MISS:          0
cpu0_L1I PREFETCH  REQUESTED:          0  ISSUED:          0  USEFUL:          0  USELESS:          0
cpu0_L1I AVERAGE MISS LATENCY: 199.25 cycles
cpu0_DTLB TOTAL     ACCESS:   96082163  HIT:   96044706  MISS:      37457
cpu0_DTLB LOAD      ACCESS:   66550199  HIT:   66513516  MISS:      36683
cpu0_DTLB RFO       ACCESS:   29531964  HIT:   29531190  MISS:        774
cpu0_DTLB PREFETCH  ACCESS:          0  HIT:          0  MISS:          0
cpu0_DTLB WRITEBACK ACCESS:          0  HIT:          0  MISS:          0
cpu0_DTLB TRANSLATION ACCESS:          0  HIT:          0  MISS:          0
cpu0_DTLB PREFETCH  REQUESTED:          0  ISSUED:          0  USEFUL:          0  USELESS:          0
cpu0_DTLB AVERAGE MISS LATENCY: 10.1939 cycles
cpu0_ITLB TOTAL     ACCESS:   53004982  HIT:   53004982  MISS:          0
cpu0_ITLB LOAD      ACCESS:   53004982  HIT:   53004982  MISS:          0
cpu0_ITLB RFO       ACCESS:          0  HIT:          0  MISS:          0
cpu0_ITLB PREFETCH  ACCESS:          0  HIT:          0  MISS:          0
cpu0_ITLB WRITEBACK ACCESS:          0  HIT:          0  MISS:          0
cpu0_ITLB TRANSLATION ACCESS:          0  HIT:          0  MISS:          0
cpu0_ITLB PREFETCH  REQUESTED:          0  ISSUED:          0  USEFUL:          0  USELESS:          0
cpu0_ITLB AVERAGE MISS LATENCY: -nan cycles
cpu0_STLB TOTAL     ACCESS:      37457  HIT:      37242  MISS:        215
cpu0_STLB LOAD      ACCESS:      36683  HIT:      36468  MISS:        215
cpu0_STLB RFO       ACCESS:        774  HIT:        774  MISS:          0
cpu0_STLB PREFETCH  ACCESS:          0  HIT:          0  MISS:          0
cpu0_STLB WRITEBACK ACCESS:          0  HIT:          0  MISS:          0
cpu0_STLB TRANSLATION ACCESS:          0  HIT:          0  MISS:          0
cpu0_STLB PREFETCH  REQUESTED:          0  ISSUED:          0  USEFUL:          0  USELESS:          0
cpu0_STLB AVERAGE MISS LATENCY: 208 cycles
cpu0_L1D TOTAL     ACCESS:  136085747  HIT:  136084155  MISS:       1592
cpu0_L1D LOAD      ACCESS:   79094943  HIT:   79093393  MISS:       1550
cpu0_L1D RFO       ACCESS:   56990589  HIT:   56990547  MISS:         42
cpu0_L1D PREFETCH  ACCESS:          0  HIT:          0  MISS:          0
cpu0_L1D WRITEBACK ACCESS:          0  HIT:          0  MISS:          0
cpu0_L1D TRANSLATION ACCESS:        215  HIT:        215  MISS:          0
cpu0_L1D PREFETCH  REQUESTED:          0  ISSUED:          0  USEFUL:          0  USELESS:          0
cpu0_L1D AVERAGE MISS LATENCY: 102.808 cycles
cpu0_L2C TOTAL     ACCESS:       2017  HIT:       1068  MISS:        949
cpu0_L2C LOAD      ACCESS:       1554  HIT:        634  MISS:        920
cpu0_L2C RFO       ACCESS:         42  HIT:         13  MISS:         29
cpu0_L2C PREFETCH  ACCESS:          0  HIT:          0  MISS:          0
cpu0_L2C WRITEBACK ACCESS:        421  HIT:        421  MISS:          0
cpu0_L2C TRANSLATION ACCESS:          0  HIT:          0  MISS:          0
cpu0_L2C PREFETCH  REQUESTED:          0  ISSUED:          0  USEFUL:          0  USELESS:          0
cpu0_L2C AVERAGE MISS LATENCY: 154.807 cycles
LLC TOTAL     ACCESS:       1867  HIT:        319  MISS:       1548
LLC LOAD      ACCESS:        920  HIT:         53  MISS:        867
LLC RFO       ACCESS:         29  HIT:          0  MISS:         29
LLC PREFETCH  ACCESS:        918  HIT:        266  MISS:        652
LLC WRITEBACK ACCESS:          0  HIT:          0  MISS:          0
LLC TRANSLATION ACCESS:          0  HIT:          0  MISS:          0
LLC PREFETCH  REQUESTED:        920  ISSUED:        920  USEFUL:         53  USELESS:         24
LLC AVERAGE MISS LATENCY: 150.352 cycles

DRAM Statistics
 CHANNEL 0
 RQ ROW_BUFFER_HIT:        192  ROW_BUFFER_MISS:       1356
 DBUS AVG_CONGESTED_CYCLE:    3.78049
 WQ ROW_BUFFER_HIT:          0  ROW_BUFFER_MISS:          0  FULL:          0


CPU 0 Branch Prediction Accuracy: 85.1687% MPKI: 24.2669 Average ROB Occupancy at Mispredict: 15.8053
Branch type MPKI
BRANCH_DIRECT_JUMP: 6e-06
BRANCH_INDIRECT: 0.00036
BRANCH_CONDITIONAL: 24.2665
BRANCH_DIRECT_CALL: 4e-06
BRANCH_INDIRECT_CALL: 0
BRANCH_RETURN: 4e-06

