/home/caslab/workspace/sim/ChampSim/bin/champsim --warmup_instructions 200000000 --simulation_instructions 500000000/ /home/caslab/workspace/sim/traces/speccpu_by_champsim644.nab_s-12459B.champsimtrace.xz
start simulation for 644.nab_s-12459B.champsimtrace.xz

*** ChampSim Multicore Out-of-Order Simulator ***

Warmup Instructions: 200000000
Simulation Instructions: 500000000
Number of CPUs: 1
Off-chip DRAM Size: 4 GiB Channels: 1 Width: 64-bit Data Rate: 3200 MT/s

VirtualMemory physical capacity: 8588881920 num_ppages: 2096895
VirtualMemory page size: 4096 log2_page_size: 12

CPU 0 runs /home/caslab/workspace/sim/traces/speccpu_by_champsim/644.nab_s-12459B.champsimtrace.xz
CPU 0 Bimodal branch predictor
Basic BTB sets: 1024 ways: 8 indirect buffer size: 4096 RAS size: 64
LLC next line prefetcher
WARNING: The extended signature CACHE::prefetch_line(ip, base_addr, pf_addr, fill_this_level, prefetch_metadata) is deprecated.
WARNING: Use CACHE::prefetch_line(pf_addr, fill_this_level, prefetch_metadata) instead.
Heartbeat CPU 0 instructions: 10000001 cycles: 2511160 heartbeat IPC: 3.98222 cumulative IPC: 3.98222 (Simulation time: 0 hr 0 min 19 sec) 
Heartbeat CPU 0 instructions: 20000002 cycles: 5023565 heartbeat IPC: 3.98025 cumulative IPC: 3.98124 (Simulation time: 0 hr 0 min 38 sec) 
Heartbeat CPU 0 instructions: 30000001 cycles: 7534875 heartbeat IPC: 3.98199 cumulative IPC: 3.98149 (Simulation time: 0 hr 0 min 57 sec) 
Heartbeat CPU 0 instructions: 40000000 cycles: 10046444 heartbeat IPC: 3.98157 cumulative IPC: 3.98151 (Simulation time: 0 hr 1 min 16 sec) 
Heartbeat CPU 0 instructions: 50000003 cycles: 12557332 heartbeat IPC: 3.98266 cumulative IPC: 3.98174 (Simulation time: 0 hr 1 min 36 sec) 
Heartbeat CPU 0 instructions: 60000000 cycles: 15069172 heartbeat IPC: 3.98114 cumulative IPC: 3.98164 (Simulation time: 0 hr 1 min 56 sec) 
Heartbeat CPU 0 instructions: 70000003 cycles: 17580990 heartbeat IPC: 3.98118 cumulative IPC: 3.98157 (Simulation time: 0 hr 2 min 15 sec) 
Heartbeat CPU 0 instructions: 80000001 cycles: 20093053 heartbeat IPC: 3.98079 cumulative IPC: 3.98148 (Simulation time: 0 hr 2 min 35 sec) 
Heartbeat CPU 0 instructions: 90000002 cycles: 22604495 heartbeat IPC: 3.98178 cumulative IPC: 3.98151 (Simulation time: 0 hr 2 min 54 sec) 
Heartbeat CPU 0 instructions: 100000001 cycles: 25116593 heartbeat IPC: 3.98074 cumulative IPC: 3.98143 (Simulation time: 0 hr 3 min 14 sec) 
Heartbeat CPU 0 instructions: 110000002 cycles: 27628570 heartbeat IPC: 3.98093 cumulative IPC: 3.98139 (Simulation time: 0 hr 3 min 33 sec) 
Heartbeat CPU 0 instructions: 120000000 cycles: 30139867 heartbeat IPC: 3.98201 cumulative IPC: 3.98144 (Simulation time: 0 hr 3 min 53 sec) 
Heartbeat CPU 0 instructions: 130000001 cycles: 32652879 heartbeat IPC: 3.97929 cumulative IPC: 3.98127 (Simulation time: 0 hr 4 min 13 sec) 
Heartbeat CPU 0 instructions: 140000000 cycles: 35167106 heartbeat IPC: 3.97737 cumulative IPC: 3.98099 (Simulation time: 0 hr 4 min 32 sec) 
Heartbeat CPU 0 instructions: 150000003 cycles: 37681558 heartbeat IPC: 3.97701 cumulative IPC: 3.98073 (Simulation time: 0 hr 4 min 53 sec) 
Heartbeat CPU 0 instructions: 160000000 cycles: 40195372 heartbeat IPC: 3.97802 cumulative IPC: 3.98056 (Simulation time: 0 hr 5 min 12 sec) 
Heartbeat CPU 0 instructions: 170000001 cycles: 42710906 heartbeat IPC: 3.9753 cumulative IPC: 3.98025 (Simulation time: 0 hr 5 min 32 sec) 
Heartbeat CPU 0 instructions: 180000003 cycles: 45224902 heartbeat IPC: 3.97773 cumulative IPC: 3.98011 (Simulation time: 0 hr 5 min 51 sec) 
Heartbeat CPU 0 instructions: 190000000 cycles: 47739758 heartbeat IPC: 3.97637 cumulative IPC: 3.97991 (Simulation time: 0 hr 6 min 11 sec) 
Heartbeat CPU 0 instructions: 200000003 cycles: 50254444 heartbeat IPC: 3.97664 cumulative IPC: 3.97975 (Simulation time: 0 hr 6 min 30 sec) 

Warmup complete CPU 0 instructions: 200000003 cycles: 50254444 (Simulation time: 0 hr 6 min 30 sec) 

Heartbeat CPU 0 instructions: 210000000 cycles: 57382621 heartbeat IPC: 1.40288 cumulative IPC: 1.40288 (Simulation time: 0 hr 6 min 48 sec) 
Heartbeat CPU 0 instructions: 220000002 cycles: 64492421 heartbeat IPC: 1.40651 cumulative IPC: 1.40469 (Simulation time: 0 hr 7 min 6 sec) 
Heartbeat CPU 0 instructions: 230000002 cycles: 71619677 heartbeat IPC: 1.40306 cumulative IPC: 1.40415 (Simulation time: 0 hr 7 min 23 sec) 
Heartbeat CPU 0 instructions: 240000000 cycles: 78798385 heartbeat IPC: 1.39301 cumulative IPC: 1.40135 (Simulation time: 0 hr 7 min 41 sec) 
Heartbeat CPU 0 instructions: 250000004 cycles: 85953842 heartbeat IPC: 1.39754 cumulative IPC: 1.40058 (Simulation time: 0 hr 7 min 59 sec) 
Heartbeat CPU 0 instructions: 260000000 cycles: 93125381 heartbeat IPC: 1.3944 cumulative IPC: 1.39955 (Simulation time: 0 hr 8 min 17 sec) 
Heartbeat CPU 0 instructions: 270000002 cycles: 100280083 heartbeat IPC: 1.39768 cumulative IPC: 1.39928 (Simulation time: 0 hr 8 min 35 sec) 
Heartbeat CPU 0 instructions: 280000000 cycles: 107474686 heartbeat IPC: 1.38993 cumulative IPC: 1.39811 (Simulation time: 0 hr 8 min 53 sec) 
Heartbeat CPU 0 instructions: 290000004 cycles: 114687576 heartbeat IPC: 1.38641 cumulative IPC: 1.3968 (Simulation time: 0 hr 9 min 11 sec) 
Heartbeat CPU 0 instructions: 300000001 cycles: 121854430 heartbeat IPC: 1.39531 cumulative IPC: 1.39665 (Simulation time: 0 hr 9 min 29 sec) 
Heartbeat CPU 0 instructions: 310000002 cycles: 129034370 heartbeat IPC: 1.39277 cumulative IPC: 1.39629 (Simulation time: 0 hr 9 min 47 sec) 
Heartbeat CPU 0 instructions: 320000002 cycles: 136287097 heartbeat IPC: 1.37879 cumulative IPC: 1.39482 (Simulation time: 0 hr 10 min 5 sec) 
Heartbeat CPU 0 instructions: 330000004 cycles: 143531407 heartbeat IPC: 1.38039 cumulative IPC: 1.3937 (Simulation time: 0 hr 10 min 23 sec) 
Heartbeat CPU 0 instructions: 340000000 cycles: 150734047 heartbeat IPC: 1.38838 cumulative IPC: 1.39332 (Simulation time: 0 hr 10 min 41 sec) 
Heartbeat CPU 0 instructions: 350000001 cycles: 157996884 heartbeat IPC: 1.37687 cumulative IPC: 1.39221 (Simulation time: 0 hr 10 min 59 sec) 
Heartbeat CPU 0 instructions: 360000001 cycles: 165244162 heartbeat IPC: 1.37983 cumulative IPC: 1.39143 (Simulation time: 0 hr 11 min 17 sec) 
Heartbeat CPU 0 instructions: 370000000 cycles: 172511883 heartbeat IPC: 1.37595 cumulative IPC: 1.39051 (Simulation time: 0 hr 11 min 35 sec) 
Heartbeat CPU 0 instructions: 380000001 cycles: 179788246 heartbeat IPC: 1.37431 cumulative IPC: 1.3896 (Simulation time: 0 hr 11 min 53 sec) 
Heartbeat CPU 0 instructions: 390000000 cycles: 186978854 heartbeat IPC: 1.3907 cumulative IPC: 1.38966 (Simulation time: 0 hr 12 min 11 sec) 
Heartbeat CPU 0 instructions: 400000004 cycles: 194222486 heartbeat IPC: 1.38052 cumulative IPC: 1.3892 (Simulation time: 0 hr 12 min 29 sec) 
Heartbeat CPU 0 instructions: 410000004 cycles: 201453409 heartbeat IPC: 1.38295 cumulative IPC: 1.3889 (Simulation time: 0 hr 12 min 47 sec) 
Heartbeat CPU 0 instructions: 420000003 cycles: 208701946 heartbeat IPC: 1.37959 cumulative IPC: 1.38847 (Simulation time: 0 hr 13 min 5 sec) 
Heartbeat CPU 0 instructions: 430000004 cycles: 215938251 heartbeat IPC: 1.38192 cumulative IPC: 1.38819 (Simulation time: 0 hr 13 min 24 sec) 
Heartbeat CPU 0 instructions: 440000000 cycles: 223187305 heartbeat IPC: 1.37949 cumulative IPC: 1.38782 (Simulation time: 0 hr 13 min 41 sec) 
Heartbeat CPU 0 instructions: 450000001 cycles: 230371647 heartbeat IPC: 1.39192 cumulative IPC: 1.38799 (Simulation time: 0 hr 13 min 59 sec) 
Heartbeat CPU 0 instructions: 460000000 cycles: 237586228 heartbeat IPC: 1.38608 cumulative IPC: 1.38791 (Simulation time: 0 hr 14 min 17 sec) 
Heartbeat CPU 0 instructions: 470000003 cycles: 244792519 heartbeat IPC: 1.38768 cumulative IPC: 1.3879 (Simulation time: 0 hr 14 min 35 sec) 
Heartbeat CPU 0 instructions: 480000002 cycles: 252001188 heartbeat IPC: 1.38722 cumulative IPC: 1.38788 (Simulation time: 0 hr 14 min 54 sec) 
Heartbeat CPU 0 instructions: 490000003 cycles: 259163868 heartbeat IPC: 1.39613 cumulative IPC: 1.38816 (Simulation time: 0 hr 15 min 12 sec) 
Heartbeat CPU 0 instructions: 500000000 cycles: 266353921 heartbeat IPC: 1.39081 cumulative IPC: 1.38825 (Simulation time: 0 hr 15 min 30 sec) 
Heartbeat CPU 0 instructions: 510000004 cycles: 273531359 heartbeat IPC: 1.39326 cumulative IPC: 1.38841 (Simulation time: 0 hr 15 min 48 sec) 
Heartbeat CPU 0 instructions: 520000000 cycles: 280699002 heartbeat IPC: 1.39516 cumulative IPC: 1.38862 (Simulation time: 0 hr 16 min 7 sec) 
Heartbeat CPU 0 instructions: 530000003 cycles: 287871899 heartbeat IPC: 1.39414 cumulative IPC: 1.38879 (Simulation time: 0 hr 16 min 25 sec) 
Heartbeat CPU 0 instructions: 540000000 cycles: 295059673 heartbeat IPC: 1.39125 cumulative IPC: 1.38886 (Simulation time: 0 hr 16 min 43 sec) 
Heartbeat CPU 0 instructions: 550000003 cycles: 302271926 heartbeat IPC: 1.38653 cumulative IPC: 1.38879 (Simulation time: 0 hr 17 min 2 sec) 
Heartbeat CPU 0 instructions: 560000000 cycles: 309509238 heartbeat IPC: 1.38173 cumulative IPC: 1.3886 (Simulation time: 0 hr 17 min 20 sec) 
Heartbeat CPU 0 instructions: 570000003 cycles: 316779012 heartbeat IPC: 1.37556 cumulative IPC: 1.38824 (Simulation time: 0 hr 17 min 38 sec) 
Heartbeat CPU 0 instructions: 580000003 cycles: 324021183 heartbeat IPC: 1.3808 cumulative IPC: 1.38804 (Simulation time: 0 hr 17 min 56 sec) 
Heartbeat CPU 0 instructions: 590000001 cycles: 331279025 heartbeat IPC: 1.37782 cumulative IPC: 1.38778 (Simulation time: 0 hr 18 min 14 sec) 
Heartbeat CPU 0 instructions: 600000000 cycles: 338536043 heartbeat IPC: 1.37798 cumulative IPC: 1.38753 (Simulation time: 0 hr 18 min 32 sec) 
Heartbeat CPU 0 instructions: 610000001 cycles: 345748168 heartbeat IPC: 1.38655 cumulative IPC: 1.38751 (Simulation time: 0 hr 18 min 51 sec) 
Heartbeat CPU 0 instructions: 620000000 cycles: 352945655 heartbeat IPC: 1.38937 cumulative IPC: 1.38755 (Simulation time: 0 hr 19 min 10 sec) 
Heartbeat CPU 0 instructions: 630000004 cycles: 360144378 heartbeat IPC: 1.38914 cumulative IPC: 1.38759 (Simulation time: 0 hr 19 min 28 sec) 
Heartbeat CPU 0 instructions: 640000001 cycles: 367404787 heartbeat IPC: 1.37733 cumulative IPC: 1.38735 (Simulation time: 0 hr 19 min 46 sec) 
Heartbeat CPU 0 instructions: 650000001 cycles: 374657709 heartbeat IPC: 1.37875 cumulative IPC: 1.38716 (Simulation time: 0 hr 20 min 4 sec) 
Heartbeat CPU 0 instructions: 660000001 cycles: 381888987 heartbeat IPC: 1.38288 cumulative IPC: 1.38707 (Simulation time: 0 hr 20 min 22 sec) 
Heartbeat CPU 0 instructions: 670000004 cycles: 389120872 heartbeat IPC: 1.38277 cumulative IPC: 1.38698 (Simulation time: 0 hr 20 min 40 sec) 
Heartbeat CPU 0 instructions: 680000000 cycles: 396315467 heartbeat IPC: 1.38993 cumulative IPC: 1.38704 (Simulation time: 0 hr 20 min 58 sec) 
Heartbeat CPU 0 instructions: 690000001 cycles: 403612775 heartbeat IPC: 1.37037 cumulative IPC: 1.38669 (Simulation time: 0 hr 21 min 17 sec) 
Heartbeat CPU 0 instructions: 700000000 cycles: 410901378 heartbeat IPC: 1.372 cumulative IPC: 1.3864 (Simulation time: 0 hr 21 min 35 sec) 
Finished CPU 0 instructions: 500000001 cycles: 360646935 cumulative IPC: 1.3864 (Simulation time: 0 hr 21 min 35 sec) 

ChampSim completed all CPUs

Region of Interest Statistics

CPU 0 cumulative IPC: 1.3864 instructions: 500000001 cycles: 360646935
cpu0_L1I TOTAL     ACCESS:          5  HIT:          5  MISS:          0
cpu0_L1I LOAD      ACCESS:          5  HIT:          5  MISS:          0
cpu0_L1I RFO       ACCESS:          0  HIT:          0  MISS:          0
cpu0_L1I PREFETCH  ACCESS:          0  HIT:          0  MISS:          0
cpu0_L1I WRITEBACK ACCESS:          0  HIT:          0  MISS:          0
cpu0_L1I TRANSLATION ACCESS:          0  HIT:          0  MISS:          0
cpu0_L1I PREFETCH  REQUESTED:          0  ISSUED:          0  USEFUL:          0  USELESS:          0
cpu0_L1I AVERAGE MISS LATENCY: -nan cycles
cpu0_DTLB TOTAL     ACCESS:   89204693  HIT:   89145756  MISS:      58937
cpu0_DTLB LOAD      ACCESS:   66360242  HIT:   66303105  MISS:      57137
cpu0_DTLB RFO       ACCESS:   22844451  HIT:   22842651  MISS:       1800
cpu0_DTLB PREFETCH  ACCESS:          0  HIT:          0  MISS:          0
cpu0_DTLB WRITEBACK ACCESS:          0  HIT:          0  MISS:          0
cpu0_DTLB TRANSLATION ACCESS:          0  HIT:          0  MISS:          0
cpu0_DTLB PREFETCH  REQUESTED:          0  ISSUED:          0  USEFUL:          0  USELESS:          0
cpu0_DTLB AVERAGE MISS LATENCY: 13.0039 cycles
cpu0_ITLB TOTAL     ACCESS:   52207852  HIT:   52207852  MISS:          0
cpu0_ITLB LOAD      ACCESS:   52207852  HIT:   52207852  MISS:          0
cpu0_ITLB RFO       ACCESS:          0  HIT:          0  MISS:          0
cpu0_ITLB PREFETCH  ACCESS:          0  HIT:          0  MISS:          0
cpu0_ITLB WRITEBACK ACCESS:          0  HIT:          0  MISS:          0
cpu0_ITLB TRANSLATION ACCESS:          0  HIT:          0  MISS:          0
cpu0_ITLB PREFETCH  REQUESTED:          0  ISSUED:          0  USEFUL:          0  USELESS:          0
cpu0_ITLB AVERAGE MISS LATENCY: -nan cycles
cpu0_STLB TOTAL     ACCESS:      58937  HIT:      57795  MISS:       1142
cpu0_STLB LOAD      ACCESS:      57137  HIT:      57078  MISS:         59
cpu0_STLB RFO       ACCESS:       1800  HIT:        717  MISS:       1083
cpu0_STLB PREFETCH  ACCESS:          0  HIT:          0  MISS:          0
cpu0_STLB WRITEBACK ACCESS:          0  HIT:          0  MISS:          0
cpu0_STLB TRANSLATION ACCESS:          0  HIT:          0  MISS:          0
cpu0_STLB PREFETCH  REQUESTED:          0  ISSUED:          0  USEFUL:          0  USELESS:          0
cpu0_STLB AVERAGE MISS LATENCY: 206.634 cycles
cpu0_L1D TOTAL     ACCESS:  116485481  HIT:  116411631  MISS:      73850
cpu0_L1D LOAD      ACCESS:   65401175  HIT:   65396713  MISS:       4462
cpu0_L1D RFO       ACCESS:   51083168  HIT:   51013780  MISS:      69388
cpu0_L1D PREFETCH  ACCESS:          0  HIT:          0  MISS:          0
cpu0_L1D WRITEBACK ACCESS:          0  HIT:          0  MISS:          0
cpu0_L1D TRANSLATION ACCESS:       1138  HIT:       1138  MISS:          0
cpu0_L1D PREFETCH  REQUESTED:          0  ISSUED:          0  USEFUL:          0  USELESS:          0
cpu0_L1D AVERAGE MISS LATENCY: 112.605 cycles
cpu0_L2C TOTAL     ACCESS:     131499  HIT:      58476  MISS:      73023
cpu0_L2C LOAD      ACCESS:       4462  HIT:        819  MISS:       3643
cpu0_L2C RFO       ACCESS:      69388  HIT:          8  MISS:      69380
cpu0_L2C PREFETCH  ACCESS:          0  HIT:          0  MISS:          0
cpu0_L2C WRITEBACK ACCESS:      57649  HIT:      57649  MISS:          0
cpu0_L2C TRANSLATION ACCESS:          0  HIT:          0  MISS:          0
cpu0_L2C PREFETCH  REQUESTED:          0  ISSUED:          0  USEFUL:          0  USELESS:          0
cpu0_L2C AVERAGE MISS LATENCY: 102.754 cycles
LLC TOTAL     ACCESS:      76247  HIT:       2917  MISS:      73330
LLC LOAD      ACCESS:       3643  HIT:       1402  MISS:       2241
LLC RFO       ACCESS:      69380  HIT:          0  MISS:      69380
LLC PREFETCH  ACCESS:       3224  HIT:       1515  MISS:       1709
LLC WRITEBACK ACCESS:          0  HIT:          0  MISS:          0
LLC TRANSLATION ACCESS:          0  HIT:          0  MISS:          0
LLC PREFETCH  REQUESTED:       3643  ISSUED:       3643  USEFUL:       1584  USELESS:        584
LLC AVERAGE MISS LATENCY: 85.2602 cycles

DRAM Statistics
 CHANNEL 0
 RQ ROW_BUFFER_HIT:      58779  ROW_BUFFER_MISS:      14551
 DBUS AVG_CONGESTED_CYCLE:    3.50519
 WQ ROW_BUFFER_HIT:          0  ROW_BUFFER_MISS:          0  FULL:          0


CPU 0 Branch Prediction Accuracy: 89.5405% MPKI: 14.5632 Average ROB Occupancy at Mispredict: 44.6252
Branch type MPKI
BRANCH_DIRECT_JUMP: 0
BRANCH_INDIRECT: 0
BRANCH_CONDITIONAL: 14.5632
BRANCH_DIRECT_CALL: 0
BRANCH_INDIRECT_CALL: 0
BRANCH_RETURN: 0

