/home/caslab/workspace/sim/ChampSim/bin/champsim --warmup_instructions 200000000 --simulation_instructions 500000000/ /home/caslab/workspace/sim/traces/speccpu_by_champsim644.nab_s-5853B.champsimtrace.xz
start simulation for 644.nab_s-5853B.champsimtrace.xz

*** ChampSim Multicore Out-of-Order Simulator ***

Warmup Instructions: 200000000
Simulation Instructions: 500000000
Number of CPUs: 1
Off-chip DRAM Size: 4 GiB Channels: 1 Width: 64-bit Data Rate: 3200 MT/s

VirtualMemory physical capacity: 8588881920 num_ppages: 2096895
VirtualMemory page size: 4096 log2_page_size: 12

CPU 0 runs /home/caslab/workspace/sim/traces/speccpu_by_champsim/644.nab_s-5853B.champsimtrace.xz
CPU 0 Bimodal branch predictor
Basic BTB sets: 1024 ways: 8 indirect buffer size: 4096 RAS size: 64
LLC next line prefetcher
WARNING: The extended signature CACHE::prefetch_line(ip, base_addr, pf_addr, fill_this_level, prefetch_metadata) is deprecated.
WARNING: Use CACHE::prefetch_line(pf_addr, fill_this_level, prefetch_metadata) instead.
Heartbeat CPU 0 instructions: 10000003 cycles: 2500090 heartbeat IPC: 3.99986 cumulative IPC: 3.99986 (Simulation time: 0 hr 0 min 21 sec) 
Heartbeat CPU 0 instructions: 20000003 cycles: 5000090 heartbeat IPC: 4 cumulative IPC: 3.99993 (Simulation time: 0 hr 0 min 42 sec) 
Heartbeat CPU 0 instructions: 30000003 cycles: 7500090 heartbeat IPC: 4 cumulative IPC: 3.99995 (Simulation time: 0 hr 1 min 3 sec) 
Heartbeat CPU 0 instructions: 40000003 cycles: 10000090 heartbeat IPC: 4 cumulative IPC: 3.99996 (Simulation time: 0 hr 1 min 24 sec) 
Heartbeat CPU 0 instructions: 50000003 cycles: 12500090 heartbeat IPC: 4 cumulative IPC: 3.99997 (Simulation time: 0 hr 1 min 45 sec) 
Heartbeat CPU 0 instructions: 60000003 cycles: 15000090 heartbeat IPC: 4 cumulative IPC: 3.99998 (Simulation time: 0 hr 2 min 7 sec) 
Heartbeat CPU 0 instructions: 70000003 cycles: 17500090 heartbeat IPC: 4 cumulative IPC: 3.99998 (Simulation time: 0 hr 2 min 28 sec) 
Heartbeat CPU 0 instructions: 80000003 cycles: 20000090 heartbeat IPC: 4 cumulative IPC: 3.99998 (Simulation time: 0 hr 2 min 49 sec) 
Heartbeat CPU 0 instructions: 90000003 cycles: 22500090 heartbeat IPC: 4 cumulative IPC: 3.99998 (Simulation time: 0 hr 3 min 10 sec) 
Heartbeat CPU 0 instructions: 100000003 cycles: 25000090 heartbeat IPC: 4 cumulative IPC: 3.99999 (Simulation time: 0 hr 3 min 30 sec) 
Heartbeat CPU 0 instructions: 110000003 cycles: 27500090 heartbeat IPC: 4 cumulative IPC: 3.99999 (Simulation time: 0 hr 3 min 52 sec) 
Heartbeat CPU 0 instructions: 120000003 cycles: 30000090 heartbeat IPC: 4 cumulative IPC: 3.99999 (Simulation time: 0 hr 4 min 13 sec) 
Heartbeat CPU 0 instructions: 130000003 cycles: 32500090 heartbeat IPC: 4 cumulative IPC: 3.99999 (Simulation time: 0 hr 4 min 35 sec) 
Heartbeat CPU 0 instructions: 140000003 cycles: 35000090 heartbeat IPC: 4 cumulative IPC: 3.99999 (Simulation time: 0 hr 4 min 56 sec) 
Heartbeat CPU 0 instructions: 150000003 cycles: 37500090 heartbeat IPC: 4 cumulative IPC: 3.99999 (Simulation time: 0 hr 5 min 17 sec) 
Heartbeat CPU 0 instructions: 160000003 cycles: 40000090 heartbeat IPC: 4 cumulative IPC: 3.99999 (Simulation time: 0 hr 5 min 38 sec) 
Heartbeat CPU 0 instructions: 170000003 cycles: 42500090 heartbeat IPC: 4 cumulative IPC: 3.99999 (Simulation time: 0 hr 5 min 59 sec) 
Heartbeat CPU 0 instructions: 180000003 cycles: 45000090 heartbeat IPC: 4 cumulative IPC: 3.99999 (Simulation time: 0 hr 6 min 20 sec) 
Heartbeat CPU 0 instructions: 190000003 cycles: 47500090 heartbeat IPC: 4 cumulative IPC: 3.99999 (Simulation time: 0 hr 6 min 41 sec) 
Heartbeat CPU 0 instructions: 200000003 cycles: 50000090 heartbeat IPC: 4 cumulative IPC: 3.99999 (Simulation time: 0 hr 7 min 2 sec) 

Warmup complete CPU 0 instructions: 200000003 cycles: 50000090 (Simulation time: 0 hr 7 min 2 sec) 

Heartbeat CPU 0 instructions: 210000002 cycles: 57760224 heartbeat IPC: 1.28864 cumulative IPC: 1.28864 (Simulation time: 0 hr 7 min 26 sec) 
Heartbeat CPU 0 instructions: 220000003 cycles: 65531566 heartbeat IPC: 1.28678 cumulative IPC: 1.28771 (Simulation time: 0 hr 7 min 50 sec) 
Heartbeat CPU 0 instructions: 230000001 cycles: 73287448 heartbeat IPC: 1.28934 cumulative IPC: 1.28825 (Simulation time: 0 hr 8 min 14 sec) 
Heartbeat CPU 0 instructions: 240000001 cycles: 81048381 heartbeat IPC: 1.2885 cumulative IPC: 1.28832 (Simulation time: 0 hr 8 min 38 sec) 
Heartbeat CPU 0 instructions: 250000003 cycles: 88808296 heartbeat IPC: 1.28867 cumulative IPC: 1.28839 (Simulation time: 0 hr 9 min 2 sec) 
Heartbeat CPU 0 instructions: 260000000 cycles: 96570136 heartbeat IPC: 1.28835 cumulative IPC: 1.28838 (Simulation time: 0 hr 9 min 26 sec) 
Heartbeat CPU 0 instructions: 270000002 cycles: 104332326 heartbeat IPC: 1.2883 cumulative IPC: 1.28837 (Simulation time: 0 hr 9 min 49 sec) 
Heartbeat CPU 0 instructions: 280000002 cycles: 112102905 heartbeat IPC: 1.28691 cumulative IPC: 1.28819 (Simulation time: 0 hr 10 min 13 sec) 
Heartbeat CPU 0 instructions: 290000000 cycles: 119878639 heartbeat IPC: 1.28605 cumulative IPC: 1.28795 (Simulation time: 0 hr 10 min 37 sec) 
Heartbeat CPU 0 instructions: 300000000 cycles: 127657957 heartbeat IPC: 1.28546 cumulative IPC: 1.2877 (Simulation time: 0 hr 11 min 1 sec) 
Heartbeat CPU 0 instructions: 310000004 cycles: 135450400 heartbeat IPC: 1.2833 cumulative IPC: 1.2873 (Simulation time: 0 hr 11 min 25 sec) 
Heartbeat CPU 0 instructions: 320000001 cycles: 143243456 heartbeat IPC: 1.28319 cumulative IPC: 1.28695 (Simulation time: 0 hr 11 min 50 sec) 
Heartbeat CPU 0 instructions: 330000000 cycles: 151079435 heartbeat IPC: 1.27616 cumulative IPC: 1.28612 (Simulation time: 0 hr 12 min 14 sec) 
Heartbeat CPU 0 instructions: 340000000 cycles: 158836000 heartbeat IPC: 1.28923 cumulative IPC: 1.28634 (Simulation time: 0 hr 12 min 38 sec) 
Heartbeat CPU 0 instructions: 350000000 cycles: 166601269 heartbeat IPC: 1.28779 cumulative IPC: 1.28644 (Simulation time: 0 hr 13 min 2 sec) 
Heartbeat CPU 0 instructions: 360000003 cycles: 174357141 heartbeat IPC: 1.28935 cumulative IPC: 1.28662 (Simulation time: 0 hr 13 min 26 sec) 
Heartbeat CPU 0 instructions: 370000003 cycles: 182126970 heartbeat IPC: 1.28703 cumulative IPC: 1.28664 (Simulation time: 0 hr 13 min 50 sec) 
Heartbeat CPU 0 instructions: 380000004 cycles: 189886328 heartbeat IPC: 1.28877 cumulative IPC: 1.28676 (Simulation time: 0 hr 14 min 14 sec) 
Heartbeat CPU 0 instructions: 390000004 cycles: 197648684 heartbeat IPC: 1.28827 cumulative IPC: 1.28684 (Simulation time: 0 hr 14 min 38 sec) 
Heartbeat CPU 0 instructions: 400000002 cycles: 205406517 heartbeat IPC: 1.28902 cumulative IPC: 1.28695 (Simulation time: 0 hr 15 min 2 sec) 
Heartbeat CPU 0 instructions: 410000003 cycles: 213169407 heartbeat IPC: 1.28818 cumulative IPC: 1.28701 (Simulation time: 0 hr 15 min 26 sec) 
Heartbeat CPU 0 instructions: 420000000 cycles: 220939547 heartbeat IPC: 1.28698 cumulative IPC: 1.28701 (Simulation time: 0 hr 15 min 50 sec) 
Heartbeat CPU 0 instructions: 430000000 cycles: 228701462 heartbeat IPC: 1.28834 cumulative IPC: 1.28706 (Simulation time: 0 hr 16 min 14 sec) 
Heartbeat CPU 0 instructions: 440000002 cycles: 236459028 heartbeat IPC: 1.28906 cumulative IPC: 1.28715 (Simulation time: 0 hr 16 min 38 sec) 
Heartbeat CPU 0 instructions: 450000004 cycles: 244220760 heartbeat IPC: 1.28837 cumulative IPC: 1.2872 (Simulation time: 0 hr 17 min 2 sec) 
Heartbeat CPU 0 instructions: 460000003 cycles: 251988192 heartbeat IPC: 1.28743 cumulative IPC: 1.2872 (Simulation time: 0 hr 17 min 26 sec) 
Heartbeat CPU 0 instructions: 470000003 cycles: 259745651 heartbeat IPC: 1.28908 cumulative IPC: 1.28727 (Simulation time: 0 hr 17 min 50 sec) 
Heartbeat CPU 0 instructions: 480000001 cycles: 267504427 heartbeat IPC: 1.28886 cumulative IPC: 1.28733 (Simulation time: 0 hr 18 min 14 sec) 
Heartbeat CPU 0 instructions: 490000003 cycles: 275260056 heartbeat IPC: 1.28939 cumulative IPC: 1.2874 (Simulation time: 0 hr 18 min 39 sec) 
Heartbeat CPU 0 instructions: 500000000 cycles: 283019690 heartbeat IPC: 1.28872 cumulative IPC: 1.28745 (Simulation time: 0 hr 19 min 3 sec) 
Heartbeat CPU 0 instructions: 510000000 cycles: 290782881 heartbeat IPC: 1.28813 cumulative IPC: 1.28747 (Simulation time: 0 hr 19 min 27 sec) 
Heartbeat CPU 0 instructions: 520000000 cycles: 298555170 heartbeat IPC: 1.28662 cumulative IPC: 1.28744 (Simulation time: 0 hr 19 min 51 sec) 
Heartbeat CPU 0 instructions: 530000003 cycles: 306322116 heartbeat IPC: 1.28751 cumulative IPC: 1.28744 (Simulation time: 0 hr 20 min 15 sec) 
Heartbeat CPU 0 instructions: 540000003 cycles: 314085294 heartbeat IPC: 1.28813 cumulative IPC: 1.28746 (Simulation time: 0 hr 20 min 39 sec) 
Heartbeat CPU 0 instructions: 550000002 cycles: 321848139 heartbeat IPC: 1.28819 cumulative IPC: 1.28748 (Simulation time: 0 hr 21 min 3 sec) 
Heartbeat CPU 0 instructions: 560000001 cycles: 329618689 heartbeat IPC: 1.28691 cumulative IPC: 1.28747 (Simulation time: 0 hr 21 min 26 sec) 
Heartbeat CPU 0 instructions: 570000002 cycles: 337379286 heartbeat IPC: 1.28856 cumulative IPC: 1.2875 (Simulation time: 0 hr 21 min 50 sec) 
Heartbeat CPU 0 instructions: 580000000 cycles: 345138811 heartbeat IPC: 1.28874 cumulative IPC: 1.28753 (Simulation time: 0 hr 22 min 14 sec) 
Heartbeat CPU 0 instructions: 590000001 cycles: 352901554 heartbeat IPC: 1.2882 cumulative IPC: 1.28755 (Simulation time: 0 hr 22 min 38 sec) 
Heartbeat CPU 0 instructions: 600000003 cycles: 360662129 heartbeat IPC: 1.28856 cumulative IPC: 1.28757 (Simulation time: 0 hr 23 min 2 sec) 
Heartbeat CPU 0 instructions: 610000001 cycles: 368425488 heartbeat IPC: 1.2881 cumulative IPC: 1.28759 (Simulation time: 0 hr 23 min 26 sec) 
Heartbeat CPU 0 instructions: 620000000 cycles: 376193678 heartbeat IPC: 1.2873 cumulative IPC: 1.28758 (Simulation time: 0 hr 23 min 50 sec) 
Heartbeat CPU 0 instructions: 630000002 cycles: 383963495 heartbeat IPC: 1.28703 cumulative IPC: 1.28757 (Simulation time: 0 hr 24 min 14 sec) 
Heartbeat CPU 0 instructions: 640000000 cycles: 391726654 heartbeat IPC: 1.28814 cumulative IPC: 1.28758 (Simulation time: 0 hr 24 min 38 sec) 
Heartbeat CPU 0 instructions: 650000002 cycles: 399487973 heartbeat IPC: 1.28844 cumulative IPC: 1.2876 (Simulation time: 0 hr 25 min 2 sec) 
Heartbeat CPU 0 instructions: 660000000 cycles: 407249703 heartbeat IPC: 1.28837 cumulative IPC: 1.28762 (Simulation time: 0 hr 25 min 26 sec) 
Heartbeat CPU 0 instructions: 670000004 cycles: 415012102 heartbeat IPC: 1.28826 cumulative IPC: 1.28763 (Simulation time: 0 hr 25 min 49 sec) 
Heartbeat CPU 0 instructions: 680000000 cycles: 422770330 heartbeat IPC: 1.28895 cumulative IPC: 1.28766 (Simulation time: 0 hr 26 min 13 sec) 
Heartbeat CPU 0 instructions: 690000001 cycles: 430529327 heartbeat IPC: 1.28883 cumulative IPC: 1.28768 (Simulation time: 0 hr 26 min 37 sec) 
Heartbeat CPU 0 instructions: 700000004 cycles: 438303627 heartbeat IPC: 1.28629 cumulative IPC: 1.28765 (Simulation time: 0 hr 27 min 1 sec) 
Finished CPU 0 instructions: 500000001 cycles: 388303537 cumulative IPC: 1.28765 (Simulation time: 0 hr 27 min 1 sec) 

ChampSim completed all CPUs

Region of Interest Statistics

CPU 0 cumulative IPC: 1.28765 instructions: 500000001 cycles: 388303537
cpu0_L1I TOTAL     ACCESS:      11835  HIT:      11833  MISS:          2
cpu0_L1I LOAD      ACCESS:      11835  HIT:      11833  MISS:          2
cpu0_L1I RFO       ACCESS:          0  HIT:          0  MISS:          0
cpu0_L1I PREFETCH  ACCESS:          0  HIT:          0  MISS:          0
cpu0_L1I WRITEBACK ACCESS:          0  HIT:          0  MISS:          0
cpu0_L1I TRANSLATION ACCESS:          0  HIT:          0  MISS:          0
cpu0_L1I PREFETCH  REQUESTED:          0  ISSUED:          0  USEFUL:          0  USELESS:          0
cpu0_L1I AVERAGE MISS LATENCY: 194.5 cycles
cpu0_DTLB TOTAL     ACCESS:  113850659  HIT:  113844529  MISS:       6130
cpu0_DTLB LOAD      ACCESS:   87956528  HIT:   87950422  MISS:       6106
cpu0_DTLB RFO       ACCESS:   25894131  HIT:   25894107  MISS:         24
cpu0_DTLB PREFETCH  ACCESS:          0  HIT:          0  MISS:          0
cpu0_DTLB WRITEBACK ACCESS:          0  HIT:          0  MISS:          0
cpu0_DTLB TRANSLATION ACCESS:          0  HIT:          0  MISS:          0
cpu0_DTLB PREFETCH  REQUESTED:          0  ISSUED:          0  USEFUL:          0  USELESS:          0
cpu0_DTLB AVERAGE MISS LATENCY: 129.491 cycles
cpu0_ITLB TOTAL     ACCESS:   53879779  HIT:   53879779  MISS:          0
cpu0_ITLB LOAD      ACCESS:   53879779  HIT:   53879779  MISS:          0
cpu0_ITLB RFO       ACCESS:          0  HIT:          0  MISS:          0
cpu0_ITLB PREFETCH  ACCESS:          0  HIT:          0  MISS:          0
cpu0_ITLB WRITEBACK ACCESS:          0  HIT:          0  MISS:          0
cpu0_ITLB TRANSLATION ACCESS:          0  HIT:          0  MISS:          0
cpu0_ITLB PREFETCH  REQUESTED:          0  ISSUED:          0  USEFUL:          0  USELESS:          0
cpu0_ITLB AVERAGE MISS LATENCY: -nan cycles
cpu0_STLB TOTAL     ACCESS:       6130  HIT:       2580  MISS:       3550
cpu0_STLB LOAD      ACCESS:       6106  HIT:       2556  MISS:       3550
cpu0_STLB RFO       ACCESS:         24  HIT:         24  MISS:          0
cpu0_STLB PREFETCH  ACCESS:          0  HIT:          0  MISS:          0
cpu0_STLB WRITEBACK ACCESS:          0  HIT:          0  MISS:          0
cpu0_STLB TRANSLATION ACCESS:          0  HIT:          0  MISS:          0
cpu0_STLB PREFETCH  REQUESTED:          0  ISSUED:          0  USEFUL:          0  USELESS:          0
cpu0_STLB AVERAGE MISS LATENCY: 208.059 cycles
cpu0_L1D TOTAL     ACCESS:  160716048  HIT:  160621006  MISS:      95042
cpu0_L1D LOAD      ACCESS:  105408226  HIT:  105313193  MISS:      95033
cpu0_L1D RFO       ACCESS:   55304275  HIT:   55304275  MISS:          0
cpu0_L1D PREFETCH  ACCESS:          0  HIT:          0  MISS:          0
cpu0_L1D WRITEBACK ACCESS:          0  HIT:          0  MISS:          0
cpu0_L1D TRANSLATION ACCESS:       3547  HIT:       3538  MISS:          9
cpu0_L1D PREFETCH  REQUESTED:          0  ISSUED:          0  USEFUL:          0  USELESS:          0
cpu0_L1D AVERAGE MISS LATENCY: 41.2573 cycles
cpu0_L2C TOTAL     ACCESS:      96542  HIT:       2081  MISS:      94461
cpu0_L2C LOAD      ACCESS:      95035  HIT:        579  MISS:      94456
cpu0_L2C RFO       ACCESS:          0  HIT:          0  MISS:          0
cpu0_L2C PREFETCH  ACCESS:          0  HIT:          0  MISS:          0
cpu0_L2C WRITEBACK ACCESS:       1498  HIT:       1498  MISS:          0
cpu0_L2C TRANSLATION ACCESS:          9  HIT:          4  MISS:          5
cpu0_L2C PREFETCH  REQUESTED:          0  ISSUED:          0  USEFUL:          0  USELESS:          0
cpu0_L2C AVERAGE MISS LATENCY: 30.4459 cycles
LLC TOTAL     ACCESS:     188724  HIT:      90630  MISS:      98094
LLC LOAD      ACCESS:      94456  HIT:      89230  MISS:       5226
LLC RFO       ACCESS:          0  HIT:          0  MISS:          0
LLC PREFETCH  ACCESS:      94263  HIT:       1400  MISS:      92863
LLC WRITEBACK ACCESS:          0  HIT:          0  MISS:          0
LLC TRANSLATION ACCESS:          5  HIT:          0  MISS:          5
LLC PREFETCH  REQUESTED:      94456  ISSUED:      94456  USEFUL:      89232  USELESS:       3695
LLC AVERAGE MISS LATENCY: 98.5043 cycles

DRAM Statistics
 CHANNEL 0
 RQ ROW_BUFFER_HIT:      64292  ROW_BUFFER_MISS:      33802
 DBUS AVG_CONGESTED_CYCLE:    3.77767
 WQ ROW_BUFFER_HIT:          0  ROW_BUFFER_MISS:          0  FULL:          0


CPU 0 Branch Prediction Accuracy: 94.2333% MPKI: 5.5828 Average ROB Occupancy at Mispredict: 134.621
Branch type MPKI
BRANCH_DIRECT_JUMP: 4e-06
BRANCH_INDIRECT: 0
BRANCH_CONDITIONAL: 5.58279
BRANCH_DIRECT_CALL: 2e-06
BRANCH_INDIRECT_CALL: 0
BRANCH_RETURN: 2e-06

