/home/caslab/workspace/sim/ChampSim/bin/champsim --warmup_instructions 200000000 --simulation_instructions 500000000/ /home/caslab/workspace/sim/traces/speccpu_by_champsim644.nab_s-12521B.champsimtrace.xz
start simulation for 644.nab_s-12521B.champsimtrace.xz

*** ChampSim Multicore Out-of-Order Simulator ***

Warmup Instructions: 200000000
Simulation Instructions: 500000000
Number of CPUs: 1
Off-chip DRAM Size: 4 GiB Channels: 1 Width: 64-bit Data Rate: 3200 MT/s

VirtualMemory physical capacity: 8588881920 num_ppages: 2096895
VirtualMemory page size: 4096 log2_page_size: 12

CPU 0 runs /home/caslab/workspace/sim/traces/speccpu_by_champsim/644.nab_s-12521B.champsimtrace.xz
CPU 0 Bimodal branch predictor
Basic BTB sets: 1024 ways: 8 indirect buffer size: 4096 RAS size: 64
LLC next line prefetcher
WARNING: The extended signature CACHE::prefetch_line(ip, base_addr, pf_addr, fill_this_level, prefetch_metadata) is deprecated.
WARNING: Use CACHE::prefetch_line(pf_addr, fill_this_level, prefetch_metadata) instead.
Heartbeat CPU 0 instructions: 10000002 cycles: 2934339 heartbeat IPC: 3.40792 cumulative IPC: 3.40792 (Simulation time: 0 hr 0 min 25 sec) 
Heartbeat CPU 0 instructions: 20000000 cycles: 5868386 heartbeat IPC: 3.40826 cumulative IPC: 3.40809 (Simulation time: 0 hr 0 min 51 sec) 
Heartbeat CPU 0 instructions: 30000003 cycles: 8802617 heartbeat IPC: 3.40805 cumulative IPC: 3.40808 (Simulation time: 0 hr 1 min 16 sec) 
Heartbeat CPU 0 instructions: 40000002 cycles: 11736451 heartbeat IPC: 3.40851 cumulative IPC: 3.40819 (Simulation time: 0 hr 1 min 41 sec) 
Heartbeat CPU 0 instructions: 50000001 cycles: 14671036 heartbeat IPC: 3.40764 cumulative IPC: 3.40808 (Simulation time: 0 hr 2 min 7 sec) 
Heartbeat CPU 0 instructions: 60000002 cycles: 17604211 heartbeat IPC: 3.40928 cumulative IPC: 3.40828 (Simulation time: 0 hr 2 min 32 sec) 
Heartbeat CPU 0 instructions: 70000004 cycles: 20538321 heartbeat IPC: 3.40819 cumulative IPC: 3.40826 (Simulation time: 0 hr 2 min 58 sec) 
Heartbeat CPU 0 instructions: 80000001 cycles: 23472742 heartbeat IPC: 3.40783 cumulative IPC: 3.40821 (Simulation time: 0 hr 3 min 23 sec) 
Heartbeat CPU 0 instructions: 90000000 cycles: 26405730 heartbeat IPC: 3.40949 cumulative IPC: 3.40835 (Simulation time: 0 hr 3 min 49 sec) 
Heartbeat CPU 0 instructions: 100000002 cycles: 29337841 heartbeat IPC: 3.41051 cumulative IPC: 3.40857 (Simulation time: 0 hr 4 min 14 sec) 
Heartbeat CPU 0 instructions: 110000002 cycles: 32272382 heartbeat IPC: 3.40769 cumulative IPC: 3.40849 (Simulation time: 0 hr 4 min 40 sec) 
Heartbeat CPU 0 instructions: 120000000 cycles: 35206998 heartbeat IPC: 3.4076 cumulative IPC: 3.40841 (Simulation time: 0 hr 5 min 5 sec) 
Heartbeat CPU 0 instructions: 130000001 cycles: 38141421 heartbeat IPC: 3.40783 cumulative IPC: 3.40837 (Simulation time: 0 hr 5 min 30 sec) 
Heartbeat CPU 0 instructions: 140000004 cycles: 41075689 heartbeat IPC: 3.40801 cumulative IPC: 3.40834 (Simulation time: 0 hr 5 min 56 sec) 
Heartbeat CPU 0 instructions: 150000000 cycles: 44008712 heartbeat IPC: 3.40945 cumulative IPC: 3.40842 (Simulation time: 0 hr 6 min 21 sec) 
Heartbeat CPU 0 instructions: 160000003 cycles: 46939843 heartbeat IPC: 3.41165 cumulative IPC: 3.40862 (Simulation time: 0 hr 6 min 47 sec) 
Heartbeat CPU 0 instructions: 170000003 cycles: 49873490 heartbeat IPC: 3.40873 cumulative IPC: 3.40862 (Simulation time: 0 hr 7 min 12 sec) 
Heartbeat CPU 0 instructions: 180000001 cycles: 52808176 heartbeat IPC: 3.40752 cumulative IPC: 3.40856 (Simulation time: 0 hr 7 min 37 sec) 
Heartbeat CPU 0 instructions: 190000003 cycles: 55742150 heartbeat IPC: 3.40835 cumulative IPC: 3.40855 (Simulation time: 0 hr 8 min 3 sec) 
Heartbeat CPU 0 instructions: 200000003 cycles: 58676468 heartbeat IPC: 3.40795 cumulative IPC: 3.40852 (Simulation time: 0 hr 8 min 28 sec) 

Warmup complete CPU 0 instructions: 200000003 cycles: 58676468 (Simulation time: 0 hr 8 min 28 sec) 

Heartbeat CPU 0 instructions: 210000000 cycles: 63449175 heartbeat IPC: 2.09525 cumulative IPC: 2.09525 (Simulation time: 0 hr 9 min 1 sec) 
Heartbeat CPU 0 instructions: 220000002 cycles: 68254782 heartbeat IPC: 2.0809 cumulative IPC: 2.08805 (Simulation time: 0 hr 9 min 33 sec) 
Heartbeat CPU 0 instructions: 230000003 cycles: 73030677 heartbeat IPC: 2.09385 cumulative IPC: 2.08998 (Simulation time: 0 hr 10 min 6 sec) 
Heartbeat CPU 0 instructions: 240000002 cycles: 77836660 heartbeat IPC: 2.08074 cumulative IPC: 2.08766 (Simulation time: 0 hr 10 min 39 sec) 
Heartbeat CPU 0 instructions: 250000000 cycles: 82661894 heartbeat IPC: 2.07244 cumulative IPC: 2.0846 (Simulation time: 0 hr 11 min 11 sec) 
Heartbeat CPU 0 instructions: 260000000 cycles: 87464725 heartbeat IPC: 2.08211 cumulative IPC: 2.08418 (Simulation time: 0 hr 11 min 44 sec) 
Heartbeat CPU 0 instructions: 270000003 cycles: 92378581 heartbeat IPC: 2.03506 cumulative IPC: 2.07702 (Simulation time: 0 hr 12 min 17 sec) 
Heartbeat CPU 0 instructions: 280000000 cycles: 97291100 heartbeat IPC: 2.03561 cumulative IPC: 2.07175 (Simulation time: 0 hr 12 min 49 sec) 
Heartbeat CPU 0 instructions: 290000002 cycles: 102189802 heartbeat IPC: 2.04136 cumulative IPC: 2.06833 (Simulation time: 0 hr 13 min 22 sec) 
Heartbeat CPU 0 instructions: 300000003 cycles: 107071623 heartbeat IPC: 2.04842 cumulative IPC: 2.06632 (Simulation time: 0 hr 13 min 55 sec) 
Heartbeat CPU 0 instructions: 310000000 cycles: 111877126 heartbeat IPC: 2.08095 cumulative IPC: 2.06764 (Simulation time: 0 hr 14 min 28 sec) 
Heartbeat CPU 0 instructions: 320000002 cycles: 116680710 heartbeat IPC: 2.08178 cumulative IPC: 2.06881 (Simulation time: 0 hr 15 min 0 sec) 
Heartbeat CPU 0 instructions: 330000000 cycles: 121540973 heartbeat IPC: 2.0575 cumulative IPC: 2.06794 (Simulation time: 0 hr 15 min 33 sec) 
Heartbeat CPU 0 instructions: 340000001 cycles: 126518459 heartbeat IPC: 2.00905 cumulative IPC: 2.06362 (Simulation time: 0 hr 16 min 6 sec) 
Heartbeat CPU 0 instructions: 350000001 cycles: 131343652 heartbeat IPC: 2.07246 cumulative IPC: 2.06421 (Simulation time: 0 hr 16 min 39 sec) 
Heartbeat CPU 0 instructions: 360000002 cycles: 136148313 heartbeat IPC: 2.08131 cumulative IPC: 2.06527 (Simulation time: 0 hr 17 min 11 sec) 
Heartbeat CPU 0 instructions: 370000000 cycles: 140981499 heartbeat IPC: 2.06903 cumulative IPC: 2.06549 (Simulation time: 0 hr 17 min 44 sec) 
Heartbeat CPU 0 instructions: 380000000 cycles: 145958722 heartbeat IPC: 2.00915 cumulative IPC: 2.06227 (Simulation time: 0 hr 18 min 17 sec) 
Heartbeat CPU 0 instructions: 390000000 cycles: 150796535 heartbeat IPC: 2.06705 cumulative IPC: 2.06253 (Simulation time: 0 hr 18 min 50 sec) 
Heartbeat CPU 0 instructions: 400000001 cycles: 155601951 heartbeat IPC: 2.08099 cumulative IPC: 2.06344 (Simulation time: 0 hr 19 min 22 sec) 
Heartbeat CPU 0 instructions: 410000004 cycles: 160398622 heartbeat IPC: 2.08478 cumulative IPC: 2.06445 (Simulation time: 0 hr 19 min 55 sec) 
Heartbeat CPU 0 instructions: 420000000 cycles: 165194834 heartbeat IPC: 2.08498 cumulative IPC: 2.06537 (Simulation time: 0 hr 20 min 28 sec) 
Heartbeat CPU 0 instructions: 430000004 cycles: 169993955 heartbeat IPC: 2.08372 cumulative IPC: 2.06616 (Simulation time: 0 hr 21 min 1 sec) 
Heartbeat CPU 0 instructions: 440000001 cycles: 174801618 heartbeat IPC: 2.08001 cumulative IPC: 2.06674 (Simulation time: 0 hr 21 min 34 sec) 
Heartbeat CPU 0 instructions: 450000000 cycles: 179698339 heartbeat IPC: 2.04218 cumulative IPC: 2.06574 (Simulation time: 0 hr 22 min 7 sec) 
Heartbeat CPU 0 instructions: 460000000 cycles: 184678737 heartbeat IPC: 2.00787 cumulative IPC: 2.06345 (Simulation time: 0 hr 22 min 40 sec) 
Heartbeat CPU 0 instructions: 470000000 cycles: 189534215 heartbeat IPC: 2.05953 cumulative IPC: 2.06331 (Simulation time: 0 hr 23 min 12 sec) 
Heartbeat CPU 0 instructions: 480000000 cycles: 196735165 heartbeat IPC: 1.38871 cumulative IPC: 2.02812 (Simulation time: 0 hr 23 min 54 sec) 
Heartbeat CPU 0 instructions: 490000001 cycles: 203525525 heartbeat IPC: 1.47268 cumulative IPC: 2.00208 (Simulation time: 0 hr 24 min 33 sec) 
Heartbeat CPU 0 instructions: 500000000 cycles: 210079259 heartbeat IPC: 1.52585 cumulative IPC: 1.98147 (Simulation time: 0 hr 25 min 6 sec) 
Heartbeat CPU 0 instructions: 510000001 cycles: 216624147 heartbeat IPC: 1.52791 cumulative IPC: 1.96268 (Simulation time: 0 hr 25 min 38 sec) 
Heartbeat CPU 0 instructions: 520000004 cycles: 223172034 heartbeat IPC: 1.52721 cumulative IPC: 1.94534 (Simulation time: 0 hr 26 min 11 sec) 
Heartbeat CPU 0 instructions: 530000003 cycles: 229852731 heartbeat IPC: 1.49685 cumulative IPC: 1.92784 (Simulation time: 0 hr 26 min 43 sec) 
Heartbeat CPU 0 instructions: 540000001 cycles: 235780423 heartbeat IPC: 1.687 cumulative IPC: 1.91978 (Simulation time: 0 hr 27 min 12 sec) 
Heartbeat CPU 0 instructions: 550000001 cycles: 238957747 heartbeat IPC: 3.1473 cumulative IPC: 1.94141 (Simulation time: 0 hr 27 min 35 sec) 
Heartbeat CPU 0 instructions: 560000003 cycles: 242133254 heartbeat IPC: 3.1491 cumulative IPC: 1.96231 (Simulation time: 0 hr 27 min 58 sec) 
Heartbeat CPU 0 instructions: 570000000 cycles: 245301159 heartbeat IPC: 3.15666 cumulative IPC: 1.98259 (Simulation time: 0 hr 28 min 21 sec) 
Heartbeat CPU 0 instructions: 580000002 cycles: 248482365 heartbeat IPC: 3.14346 cumulative IPC: 2.00205 (Simulation time: 0 hr 28 min 43 sec) 
Heartbeat CPU 0 instructions: 590000000 cycles: 251648643 heartbeat IPC: 3.15828 cumulative IPC: 2.02102 (Simulation time: 0 hr 29 min 6 sec) 
Heartbeat CPU 0 instructions: 600000004 cycles: 254773176 heartbeat IPC: 3.20048 cumulative IPC: 2.03981 (Simulation time: 0 hr 29 min 30 sec) 
Heartbeat CPU 0 instructions: 610000002 cycles: 258371270 heartbeat IPC: 2.77925 cumulative IPC: 2.05313 (Simulation time: 0 hr 29 min 51 sec) 
Heartbeat CPU 0 instructions: 620000002 cycles: 261987706 heartbeat IPC: 2.76515 cumulative IPC: 2.0658 (Simulation time: 0 hr 30 min 12 sec) 
Heartbeat CPU 0 instructions: 630000004 cycles: 265602255 heartbeat IPC: 2.7666 cumulative IPC: 2.07804 (Simulation time: 0 hr 30 min 34 sec) 
Heartbeat CPU 0 instructions: 640000001 cycles: 269217653 heartbeat IPC: 2.76595 cumulative IPC: 2.08985 (Simulation time: 0 hr 30 min 55 sec) 
Heartbeat CPU 0 instructions: 650000002 cycles: 273165477 heartbeat IPC: 2.53304 cumulative IPC: 2.09801 (Simulation time: 0 hr 31 min 18 sec) 
Heartbeat CPU 0 instructions: 660000002 cycles: 281176472 heartbeat IPC: 1.24828 cumulative IPC: 2.06742 (Simulation time: 0 hr 31 min 45 sec) 
Heartbeat CPU 0 instructions: 670000002 cycles: 289060034 heartbeat IPC: 1.26846 cumulative IPC: 2.04008 (Simulation time: 0 hr 32 min 11 sec) 
Heartbeat CPU 0 instructions: 680000004 cycles: 294112517 heartbeat IPC: 1.97923 cumulative IPC: 2.03877 (Simulation time: 0 hr 32 min 42 sec) 
Heartbeat CPU 0 instructions: 690000000 cycles: 298855837 heartbeat IPC: 2.10823 cumulative IPC: 2.04014 (Simulation time: 0 hr 33 min 14 sec) 
Heartbeat CPU 0 instructions: 700000001 cycles: 303599378 heartbeat IPC: 2.10813 cumulative IPC: 2.04146 (Simulation time: 0 hr 33 min 47 sec) 
Finished CPU 0 instructions: 500000003 cycles: 244922911 cumulative IPC: 2.04146 (Simulation time: 0 hr 33 min 47 sec) 

ChampSim completed all CPUs

Region of Interest Statistics

CPU 0 cumulative IPC: 2.04146 instructions: 500000003 cycles: 244922911
cpu0_L1I TOTAL     ACCESS:   18891658  HIT:   18891183  MISS:        475
cpu0_L1I LOAD      ACCESS:   18891658  HIT:   18891183  MISS:        475
cpu0_L1I RFO       ACCESS:          0  HIT:          0  MISS:          0
cpu0_L1I PREFETCH  ACCESS:          0  HIT:          0  MISS:          0
cpu0_L1I WRITEBACK ACCESS:          0  HIT:          0  MISS:          0
cpu0_L1I TRANSLATION ACCESS:          0  HIT:          0  MISS:          0
cpu0_L1I PREFETCH  REQUESTED:          0  ISSUED:          0  USEFUL:          0  USELESS:          0
cpu0_L1I AVERAGE MISS LATENCY: 138.179 cycles
cpu0_DTLB TOTAL     ACCESS:   96495448  HIT:   96468139  MISS:      27309
cpu0_DTLB LOAD      ACCESS:   86666236  HIT:   86640567  MISS:      25669
cpu0_DTLB RFO       ACCESS:    9829212  HIT:    9827572  MISS:       1640
cpu0_DTLB PREFETCH  ACCESS:          0  HIT:          0  MISS:          0
cpu0_DTLB WRITEBACK ACCESS:          0  HIT:          0  MISS:          0
cpu0_DTLB TRANSLATION ACCESS:          0  HIT:          0  MISS:          0
cpu0_DTLB PREFETCH  REQUESTED:          0  ISSUED:          0  USEFUL:          0  USELESS:          0
cpu0_DTLB AVERAGE MISS LATENCY: 147.762 cycles
cpu0_ITLB TOTAL     ACCESS:    7105344  HIT:    7105320  MISS:         24
cpu0_ITLB LOAD      ACCESS:    7105344  HIT:    7105320  MISS:         24
cpu0_ITLB RFO       ACCESS:          0  HIT:          0  MISS:          0
cpu0_ITLB PREFETCH  ACCESS:          0  HIT:          0  MISS:          0
cpu0_ITLB WRITEBACK ACCESS:          0  HIT:          0  MISS:          0
cpu0_ITLB TRANSLATION ACCESS:          0  HIT:          0  MISS:          0
cpu0_ITLB PREFETCH  REQUESTED:          0  ISSUED:          0  USEFUL:          0  USELESS:          0
cpu0_ITLB AVERAGE MISS LATENCY: 218.875 cycles
cpu0_STLB TOTAL     ACCESS:      27333  HIT:      12342  MISS:      14991
cpu0_STLB LOAD      ACCESS:      25693  HIT:      11851  MISS:      13842
cpu0_STLB RFO       ACCESS:       1640  HIT:        491  MISS:       1149
cpu0_STLB PREFETCH  ACCESS:          0  HIT:          0  MISS:          0
cpu0_STLB WRITEBACK ACCESS:          0  HIT:          0  MISS:          0
cpu0_STLB TRANSLATION ACCESS:          0  HIT:          0  MISS:          0
cpu0_STLB PREFETCH  REQUESTED:          0  ISSUED:          0  USEFUL:          0  USELESS:          0
cpu0_STLB AVERAGE MISS LATENCY: 253.066 cycles
cpu0_L1D TOTAL     ACCESS:  126460719  HIT:  125444560  MISS:    1016159
cpu0_L1D LOAD      ACCESS:   99489871  HIT:   98576202  MISS:     913669
cpu0_L1D RFO       ACCESS:   26956802  HIT:   26854335  MISS:     102467
cpu0_L1D PREFETCH  ACCESS:          0  HIT:          0  MISS:          0
cpu0_L1D WRITEBACK ACCESS:          0  HIT:          0  MISS:          0
cpu0_L1D TRANSLATION ACCESS:      14046  HIT:      14023  MISS:         23
cpu0_L1D PREFETCH  REQUESTED:          0  ISSUED:          0  USEFUL:          0  USELESS:          0
cpu0_L1D AVERAGE MISS LATENCY: 115.113 cycles
cpu0_L2C TOTAL     ACCESS:    1315989  HIT:     750940  MISS:     565049
cpu0_L2C LOAD      ACCESS:     914144  HIT:     422152  MISS:     491992
cpu0_L2C RFO       ACCESS:     102467  HIT:      29414  MISS:      73053
cpu0_L2C PREFETCH  ACCESS:          0  HIT:          0  MISS:          0
cpu0_L2C WRITEBACK ACCESS:     299355  HIT:     299355  MISS:          0
cpu0_L2C TRANSLATION ACCESS:         23  HIT:         19  MISS:          4
cpu0_L2C PREFETCH  REQUESTED:          0  ISSUED:          0  USEFUL:          0  USELESS:          0
cpu0_L2C AVERAGE MISS LATENCY: 187.234 cycles
LLC TOTAL     ACCESS:     963657  HIT:     381268  MISS:     582389
LLC LOAD      ACCESS:     491992  HIT:     377979  MISS:     114013
LLC RFO       ACCESS:      73053  HIT:          4  MISS:      73049
LLC PREFETCH  ACCESS:     398592  HIT:       3285  MISS:     395307
LLC WRITEBACK ACCESS:         16  HIT:          0  MISS:         16
LLC TRANSLATION ACCESS:          4  HIT:          0  MISS:          4
LLC PREFETCH  REQUESTED:     491992  ISSUED:     491992  USEFUL:     437345  USELESS:      17899
LLC AVERAGE MISS LATENCY: 243.916 cycles

DRAM Statistics
 CHANNEL 0
 RQ ROW_BUFFER_HIT:     192783  ROW_BUFFER_MISS:     389590
 DBUS AVG_CONGESTED_CYCLE:    3.97766
 WQ ROW_BUFFER_HIT:          0  ROW_BUFFER_MISS:         16  FULL:          0


CPU 0 Branch Prediction Accuracy: 98.8181% MPKI: 0.965638 Average ROB Occupancy at Mispredict: 142.659
Branch type MPKI
BRANCH_DIRECT_JUMP: 0.000184
BRANCH_INDIRECT: 0.278948
BRANCH_CONDITIONAL: 0.68641
BRANCH_DIRECT_CALL: 4.8e-05
BRANCH_INDIRECT_CALL: 0
BRANCH_RETURN: 4.8e-05

