/home/caslab/workspace/sim/ChampSim/bin/champsim --warmup_instructions 200000000 --simulation_instructions 500000000/ /home/caslab/workspace/sim/traces/speccpu_by_champsim648.exchange2_s-1511B.champsimtrace.xz
start simulation for 648.exchange2_s-1511B.champsimtrace.xz

*** ChampSim Multicore Out-of-Order Simulator ***

Warmup Instructions: 200000000
Simulation Instructions: 500000000
Number of CPUs: 1
Off-chip DRAM Size: 4 GiB Channels: 1 Width: 64-bit Data Rate: 3200 MT/s

VirtualMemory physical capacity: 8588881920 num_ppages: 2096895
VirtualMemory page size: 4096 log2_page_size: 12

CPU 0 runs /home/caslab/workspace/sim/traces/speccpu_by_champsim/648.exchange2_s-1511B.champsimtrace.xz
CPU 0 Bimodal branch predictor
Basic BTB sets: 1024 ways: 8 indirect buffer size: 4096 RAS size: 64
LLC next line prefetcher
WARNING: The extended signature CACHE::prefetch_line(ip, base_addr, pf_addr, fill_this_level, prefetch_metadata) is deprecated.
WARNING: Use CACHE::prefetch_line(pf_addr, fill_this_level, prefetch_metadata) instead.
Heartbeat CPU 0 instructions: 10000000 cycles: 2500146 heartbeat IPC: 3.99977 cumulative IPC: 3.99977 (Simulation time: 0 hr 0 min 21 sec) 
Heartbeat CPU 0 instructions: 20000000 cycles: 5000146 heartbeat IPC: 4 cumulative IPC: 3.99988 (Simulation time: 0 hr 0 min 43 sec) 
Heartbeat CPU 0 instructions: 30000000 cycles: 7500146 heartbeat IPC: 4 cumulative IPC: 3.99992 (Simulation time: 0 hr 1 min 3 sec) 
Heartbeat CPU 0 instructions: 40000000 cycles: 10000146 heartbeat IPC: 4 cumulative IPC: 3.99994 (Simulation time: 0 hr 1 min 24 sec) 
Heartbeat CPU 0 instructions: 50000000 cycles: 12500146 heartbeat IPC: 4 cumulative IPC: 3.99995 (Simulation time: 0 hr 1 min 45 sec) 
Heartbeat CPU 0 instructions: 60000000 cycles: 15000146 heartbeat IPC: 4 cumulative IPC: 3.99996 (Simulation time: 0 hr 2 min 7 sec) 
Heartbeat CPU 0 instructions: 70000000 cycles: 17500146 heartbeat IPC: 4 cumulative IPC: 3.99997 (Simulation time: 0 hr 2 min 29 sec) 
Heartbeat CPU 0 instructions: 80000003 cycles: 20001340 heartbeat IPC: 3.99809 cumulative IPC: 3.99973 (Simulation time: 0 hr 2 min 49 sec) 
Heartbeat CPU 0 instructions: 90000001 cycles: 22501667 heartbeat IPC: 3.99948 cumulative IPC: 3.9997 (Simulation time: 0 hr 3 min 9 sec) 
Heartbeat CPU 0 instructions: 100000001 cycles: 25001994 heartbeat IPC: 3.99948 cumulative IPC: 3.99968 (Simulation time: 0 hr 3 min 29 sec) 
Heartbeat CPU 0 instructions: 110000002 cycles: 27502322 heartbeat IPC: 3.99948 cumulative IPC: 3.99966 (Simulation time: 0 hr 3 min 50 sec) 
Heartbeat CPU 0 instructions: 120000002 cycles: 30002650 heartbeat IPC: 3.99948 cumulative IPC: 3.99965 (Simulation time: 0 hr 4 min 10 sec) 
Heartbeat CPU 0 instructions: 130000002 cycles: 32502650 heartbeat IPC: 4 cumulative IPC: 3.99967 (Simulation time: 0 hr 4 min 31 sec) 
Heartbeat CPU 0 instructions: 140000002 cycles: 35002650 heartbeat IPC: 4 cumulative IPC: 3.9997 (Simulation time: 0 hr 4 min 52 sec) 
Heartbeat CPU 0 instructions: 150000003 cycles: 37503305 heartbeat IPC: 3.99895 cumulative IPC: 3.99965 (Simulation time: 0 hr 5 min 13 sec) 
Heartbeat CPU 0 instructions: 160000003 cycles: 40003305 heartbeat IPC: 4 cumulative IPC: 3.99967 (Simulation time: 0 hr 5 min 33 sec) 
Heartbeat CPU 0 instructions: 170000003 cycles: 42503305 heartbeat IPC: 4 cumulative IPC: 3.99969 (Simulation time: 0 hr 5 min 54 sec) 
Heartbeat CPU 0 instructions: 180000003 cycles: 45003305 heartbeat IPC: 4 cumulative IPC: 3.99971 (Simulation time: 0 hr 6 min 15 sec) 
Heartbeat CPU 0 instructions: 190000003 cycles: 47503305 heartbeat IPC: 4 cumulative IPC: 3.99972 (Simulation time: 0 hr 6 min 36 sec) 
Heartbeat CPU 0 instructions: 200000003 cycles: 50003305 heartbeat IPC: 4 cumulative IPC: 3.99974 (Simulation time: 0 hr 6 min 58 sec) 

Warmup complete CPU 0 instructions: 200000003 cycles: 50003305 (Simulation time: 0 hr 6 min 58 sec) 

Heartbeat CPU 0 instructions: 210000000 cycles: 58364697 heartbeat IPC: 1.19597 cumulative IPC: 1.19597 (Simulation time: 0 hr 7 min 15 sec) 
Heartbeat CPU 0 instructions: 220000003 cycles: 66615292 heartbeat IPC: 1.21203 cumulative IPC: 1.20395 (Simulation time: 0 hr 7 min 33 sec) 
Heartbeat CPU 0 instructions: 230000000 cycles: 74901682 heartbeat IPC: 1.2068 cumulative IPC: 1.2049 (Simulation time: 0 hr 7 min 50 sec) 
Heartbeat CPU 0 instructions: 240000000 cycles: 83302352 heartbeat IPC: 1.19038 cumulative IPC: 1.20124 (Simulation time: 0 hr 8 min 7 sec) 
Heartbeat CPU 0 instructions: 250000004 cycles: 91766406 heartbeat IPC: 1.18147 cumulative IPC: 1.19723 (Simulation time: 0 hr 8 min 25 sec) 
Heartbeat CPU 0 instructions: 260000003 cycles: 100050427 heartbeat IPC: 1.20714 cumulative IPC: 1.19887 (Simulation time: 0 hr 8 min 42 sec) 
Heartbeat CPU 0 instructions: 270000000 cycles: 108438426 heartbeat IPC: 1.19218 cumulative IPC: 1.19791 (Simulation time: 0 hr 9 min 0 sec) 
Heartbeat CPU 0 instructions: 280000003 cycles: 116805281 heartbeat IPC: 1.19519 cumulative IPC: 1.19757 (Simulation time: 0 hr 9 min 17 sec) 
Heartbeat CPU 0 instructions: 290000003 cycles: 125010189 heartbeat IPC: 1.21878 cumulative IPC: 1.19989 (Simulation time: 0 hr 9 min 34 sec) 
Heartbeat CPU 0 instructions: 300000001 cycles: 133347134 heartbeat IPC: 1.19948 cumulative IPC: 1.19985 (Simulation time: 0 hr 9 min 52 sec) 
Heartbeat CPU 0 instructions: 310000004 cycles: 141708236 heartbeat IPC: 1.19602 cumulative IPC: 1.1995 (Simulation time: 0 hr 10 min 9 sec) 
Heartbeat CPU 0 instructions: 320000003 cycles: 150234375 heartbeat IPC: 1.17286 cumulative IPC: 1.19723 (Simulation time: 0 hr 10 min 26 sec) 
Heartbeat CPU 0 instructions: 330000000 cycles: 158809942 heartbeat IPC: 1.1661 cumulative IPC: 1.19478 (Simulation time: 0 hr 10 min 44 sec) 
Heartbeat CPU 0 instructions: 340000001 cycles: 167037448 heartbeat IPC: 1.21544 cumulative IPC: 1.19623 (Simulation time: 0 hr 11 min 1 sec) 
Heartbeat CPU 0 instructions: 350000001 cycles: 175186216 heartbeat IPC: 1.22718 cumulative IPC: 1.19825 (Simulation time: 0 hr 11 min 18 sec) 
Heartbeat CPU 0 instructions: 360000000 cycles: 183425445 heartbeat IPC: 1.21371 cumulative IPC: 1.1992 (Simulation time: 0 hr 11 min 36 sec) 
Heartbeat CPU 0 instructions: 370000001 cycles: 191592469 heartbeat IPC: 1.22444 cumulative IPC: 1.20066 (Simulation time: 0 hr 11 min 53 sec) 
Heartbeat CPU 0 instructions: 380000001 cycles: 199721399 heartbeat IPC: 1.23017 cumulative IPC: 1.20226 (Simulation time: 0 hr 12 min 10 sec) 
Heartbeat CPU 0 instructions: 390000002 cycles: 207828159 heartbeat IPC: 1.23354 cumulative IPC: 1.20387 (Simulation time: 0 hr 12 min 27 sec) 
Heartbeat CPU 0 instructions: 400000000 cycles: 216135606 heartbeat IPC: 1.20374 cumulative IPC: 1.20386 (Simulation time: 0 hr 12 min 44 sec) 
Heartbeat CPU 0 instructions: 410000003 cycles: 224280939 heartbeat IPC: 1.2277 cumulative IPC: 1.20497 (Simulation time: 0 hr 13 min 1 sec) 
Heartbeat CPU 0 instructions: 420000004 cycles: 232438456 heartbeat IPC: 1.22586 cumulative IPC: 1.20591 (Simulation time: 0 hr 13 min 18 sec) 
Heartbeat CPU 0 instructions: 430000002 cycles: 240627699 heartbeat IPC: 1.22111 cumulative IPC: 1.20656 (Simulation time: 0 hr 13 min 35 sec) 
Heartbeat CPU 0 instructions: 440000003 cycles: 248861021 heartbeat IPC: 1.21458 cumulative IPC: 1.20689 (Simulation time: 0 hr 13 min 52 sec) 
Heartbeat CPU 0 instructions: 450000001 cycles: 257049082 heartbeat IPC: 1.22129 cumulative IPC: 1.20746 (Simulation time: 0 hr 14 min 9 sec) 
Heartbeat CPU 0 instructions: 460000000 cycles: 265237306 heartbeat IPC: 1.22127 cumulative IPC: 1.20799 (Simulation time: 0 hr 14 min 26 sec) 
Heartbeat CPU 0 instructions: 470000001 cycles: 273314363 heartbeat IPC: 1.23807 cumulative IPC: 1.20908 (Simulation time: 0 hr 14 min 43 sec) 
Heartbeat CPU 0 instructions: 480000003 cycles: 281437114 heartbeat IPC: 1.23111 cumulative IPC: 1.20985 (Simulation time: 0 hr 15 min 0 sec) 
Heartbeat CPU 0 instructions: 490000001 cycles: 289553053 heartbeat IPC: 1.23214 cumulative IPC: 1.2106 (Simulation time: 0 hr 15 min 16 sec) 
Heartbeat CPU 0 instructions: 500000003 cycles: 297676225 heartbeat IPC: 1.23105 cumulative IPC: 1.21127 (Simulation time: 0 hr 15 min 34 sec) 
Heartbeat CPU 0 instructions: 510000000 cycles: 305775405 heartbeat IPC: 1.23469 cumulative IPC: 1.21202 (Simulation time: 0 hr 15 min 51 sec) 
Heartbeat CPU 0 instructions: 520000000 cycles: 313922841 heartbeat IPC: 1.22738 cumulative IPC: 1.21249 (Simulation time: 0 hr 16 min 9 sec) 
Heartbeat CPU 0 instructions: 530000003 cycles: 322053273 heartbeat IPC: 1.22995 cumulative IPC: 1.21301 (Simulation time: 0 hr 16 min 26 sec) 
Heartbeat CPU 0 instructions: 540000003 cycles: 330227082 heartbeat IPC: 1.22342 cumulative IPC: 1.21332 (Simulation time: 0 hr 16 min 43 sec) 
Heartbeat CPU 0 instructions: 550000004 cycles: 338415252 heartbeat IPC: 1.22127 cumulative IPC: 1.21354 (Simulation time: 0 hr 17 min 1 sec) 
Heartbeat CPU 0 instructions: 560000000 cycles: 346775535 heartbeat IPC: 1.19613 cumulative IPC: 1.21305 (Simulation time: 0 hr 17 min 18 sec) 
Heartbeat CPU 0 instructions: 570000000 cycles: 355160795 heartbeat IPC: 1.19257 cumulative IPC: 1.21249 (Simulation time: 0 hr 17 min 36 sec) 
Heartbeat CPU 0 instructions: 580000003 cycles: 363332284 heartbeat IPC: 1.22377 cumulative IPC: 1.21278 (Simulation time: 0 hr 17 min 53 sec) 
Heartbeat CPU 0 instructions: 590000000 cycles: 371556545 heartbeat IPC: 1.21591 cumulative IPC: 1.21286 (Simulation time: 0 hr 18 min 10 sec) 
Heartbeat CPU 0 instructions: 600000000 cycles: 379700804 heartbeat IPC: 1.22786 cumulative IPC: 1.21323 (Simulation time: 0 hr 18 min 26 sec) 
Heartbeat CPU 0 instructions: 610000000 cycles: 387760264 heartbeat IPC: 1.24078 cumulative IPC: 1.21389 (Simulation time: 0 hr 18 min 43 sec) 
Heartbeat CPU 0 instructions: 620000003 cycles: 395830425 heartbeat IPC: 1.23913 cumulative IPC: 1.21448 (Simulation time: 0 hr 18 min 59 sec) 
Heartbeat CPU 0 instructions: 630000003 cycles: 404186937 heartbeat IPC: 1.19667 cumulative IPC: 1.21406 (Simulation time: 0 hr 19 min 17 sec) 
Heartbeat CPU 0 instructions: 640000001 cycles: 412560035 heartbeat IPC: 1.1943 cumulative IPC: 1.2136 (Simulation time: 0 hr 19 min 34 sec) 
Heartbeat CPU 0 instructions: 650000000 cycles: 420810866 heartbeat IPC: 1.212 cumulative IPC: 1.21357 (Simulation time: 0 hr 19 min 51 sec) 
Heartbeat CPU 0 instructions: 660000002 cycles: 429282613 heartbeat IPC: 1.18039 cumulative IPC: 1.21283 (Simulation time: 0 hr 20 min 9 sec) 
Heartbeat CPU 0 instructions: 670000000 cycles: 437774564 heartbeat IPC: 1.17759 cumulative IPC: 1.21205 (Simulation time: 0 hr 20 min 26 sec) 
Heartbeat CPU 0 instructions: 680000000 cycles: 446299710 heartbeat IPC: 1.173 cumulative IPC: 1.21121 (Simulation time: 0 hr 20 min 44 sec) 
Heartbeat CPU 0 instructions: 690000000 cycles: 454780186 heartbeat IPC: 1.17918 cumulative IPC: 1.21054 (Simulation time: 0 hr 21 min 2 sec) 
Heartbeat CPU 0 instructions: 700000001 cycles: 463237153 heartbeat IPC: 1.18246 cumulative IPC: 1.20997 (Simulation time: 0 hr 21 min 20 sec) 
Finished CPU 0 instructions: 500000003 cycles: 413233855 cumulative IPC: 1.20997 (Simulation time: 0 hr 21 min 20 sec) 

ChampSim completed all CPUs

Region of Interest Statistics

CPU 0 cumulative IPC: 1.20997 instructions: 500000003 cycles: 413233855
cpu0_L1I TOTAL     ACCESS:   32301065  HIT:   32301059  MISS:          6
cpu0_L1I LOAD      ACCESS:   32301065  HIT:   32301059  MISS:          6
cpu0_L1I RFO       ACCESS:          0  HIT:          0  MISS:          0
cpu0_L1I PREFETCH  ACCESS:          0  HIT:          0  MISS:          0
cpu0_L1I WRITEBACK ACCESS:          0  HIT:          0  MISS:          0
cpu0_L1I TRANSLATION ACCESS:          0  HIT:          0  MISS:          0
cpu0_L1I PREFETCH  REQUESTED:          0  ISSUED:          0  USEFUL:          0  USELESS:          0
cpu0_L1I AVERAGE MISS LATENCY: 109.333 cycles
cpu0_DTLB TOTAL     ACCESS:   75066951  HIT:   75066951  MISS:          0
cpu0_DTLB LOAD      ACCESS:   35427708  HIT:   35427708  MISS:          0
cpu0_DTLB RFO       ACCESS:   39639243  HIT:   39639243  MISS:          0
cpu0_DTLB PREFETCH  ACCESS:          0  HIT:          0  MISS:          0
cpu0_DTLB WRITEBACK ACCESS:          0  HIT:          0  MISS:          0
cpu0_DTLB TRANSLATION ACCESS:          0  HIT:          0  MISS:          0
cpu0_DTLB PREFETCH  REQUESTED:          0  ISSUED:          0  USEFUL:          0  USELESS:          0
cpu0_DTLB AVERAGE MISS LATENCY: -nan cycles
cpu0_ITLB TOTAL     ACCESS:   49721265  HIT:   49721265  MISS:          0
cpu0_ITLB LOAD      ACCESS:   49721265  HIT:   49721265  MISS:          0
cpu0_ITLB RFO       ACCESS:          0  HIT:          0  MISS:          0
cpu0_ITLB PREFETCH  ACCESS:          0  HIT:          0  MISS:          0
cpu0_ITLB WRITEBACK ACCESS:          0  HIT:          0  MISS:          0
cpu0_ITLB TRANSLATION ACCESS:          0  HIT:          0  MISS:          0
cpu0_ITLB PREFETCH  REQUESTED:          0  ISSUED:          0  USEFUL:          0  USELESS:          0
cpu0_ITLB AVERAGE MISS LATENCY: -nan cycles
cpu0_L1D TOTAL     ACCESS:  138919943  HIT:  138919943  MISS:          0
cpu0_L1D LOAD      ACCESS:   65459309  HIT:   65459309  MISS:          0
cpu0_L1D RFO       ACCESS:   73460634  HIT:   73460634  MISS:          0
cpu0_L1D PREFETCH  ACCESS:          0  HIT:          0  MISS:          0
cpu0_L1D WRITEBACK ACCESS:          0  HIT:          0  MISS:          0
cpu0_L1D TRANSLATION ACCESS:          0  HIT:          0  MISS:          0
cpu0_L1D PREFETCH  REQUESTED:          0  ISSUED:          0  USEFUL:          0  USELESS:          0
cpu0_L1D AVERAGE MISS LATENCY: -nan cycles
cpu0_L2C TOTAL     ACCESS:          6  HIT:          0  MISS:          6
cpu0_L2C LOAD      ACCESS:          6  HIT:          0  MISS:          6
cpu0_L2C RFO       ACCESS:          0  HIT:          0  MISS:          0
cpu0_L2C PREFETCH  ACCESS:          0  HIT:          0  MISS:          0
cpu0_L2C WRITEBACK ACCESS:          0  HIT:          0  MISS:          0
cpu0_L2C TRANSLATION ACCESS:          0  HIT:          0  MISS:          0
cpu0_L2C PREFETCH  REQUESTED:          0  ISSUED:          0  USEFUL:          0  USELESS:          0
cpu0_L2C AVERAGE MISS LATENCY: 98.3333 cycles
LLC TOTAL     ACCESS:          9  HIT:          3  MISS:          6
LLC LOAD      ACCESS:          6  HIT:          3  MISS:          3
LLC RFO       ACCESS:          0  HIT:          0  MISS:          0
LLC PREFETCH  ACCESS:          3  HIT:          0  MISS:          3
LLC WRITEBACK ACCESS:          0  HIT:          0  MISS:          0
LLC TRANSLATION ACCESS:          0  HIT:          0  MISS:          0
LLC PREFETCH  REQUESTED:          6  ISSUED:          6  USEFUL:          4  USELESS:          0
LLC AVERAGE MISS LATENCY: 135.167 cycles

DRAM Statistics
 CHANNEL 0
 RQ ROW_BUFFER_HIT:          0  ROW_BUFFER_MISS:          6
 DBUS AVG_CONGESTED_CYCLE: -
 WQ ROW_BUFFER_HIT:          0  ROW_BUFFER_MISS:          0  FULL:          0


CPU 0 Branch Prediction Accuracy: 74.2101% MPKI: 35.4221 Average ROB Occupancy at Mispredict: 12.187
Branch type MPKI
BRANCH_DIRECT_JUMP: 2e-06
BRANCH_INDIRECT: 0
BRANCH_CONDITIONAL: 35.4221
BRANCH_DIRECT_CALL: 0
BRANCH_INDIRECT_CALL: 0
BRANCH_RETURN: 0

