/home/caslab/workspace/sim/ChampSim/bin/champsim --warmup_instructions 200000000 --simulation_instructions 500000000/ /home/caslab/workspace/sim/traces/speccpu_by_champsim648.exchange2_s-72B.champsimtrace.xz
start simulation for 648.exchange2_s-72B.champsimtrace.xz

*** ChampSim Multicore Out-of-Order Simulator ***

Warmup Instructions: 200000000
Simulation Instructions: 500000000
Number of CPUs: 1
Off-chip DRAM Size: 4 GiB Channels: 1 Width: 64-bit Data Rate: 3200 MT/s

VirtualMemory physical capacity: 8588881920 num_ppages: 2096895
VirtualMemory page size: 4096 log2_page_size: 12

CPU 0 runs /home/caslab/workspace/sim/traces/speccpu_by_champsim/648.exchange2_s-72B.champsimtrace.xz
CPU 0 Bimodal branch predictor
Basic BTB sets: 1024 ways: 8 indirect buffer size: 4096 RAS size: 64
LLC next line prefetcher
WARNING: The extended signature CACHE::prefetch_line(ip, base_addr, pf_addr, fill_this_level, prefetch_metadata) is deprecated.
WARNING: Use CACHE::prefetch_line(pf_addr, fill_this_level, prefetch_metadata) instead.
Heartbeat CPU 0 instructions: 10000001 cycles: 2500201 heartbeat IPC: 3.99968 cumulative IPC: 3.99968 (Simulation time: 0 hr 0 min 21 sec) 
Heartbeat CPU 0 instructions: 20000001 cycles: 5000201 heartbeat IPC: 4 cumulative IPC: 3.99984 (Simulation time: 0 hr 0 min 42 sec) 
Heartbeat CPU 0 instructions: 30000001 cycles: 7500201 heartbeat IPC: 4 cumulative IPC: 3.99989 (Simulation time: 0 hr 1 min 2 sec) 
Heartbeat CPU 0 instructions: 40000001 cycles: 10000201 heartbeat IPC: 4 cumulative IPC: 3.99992 (Simulation time: 0 hr 1 min 23 sec) 
Heartbeat CPU 0 instructions: 50000002 cycles: 12500538 heartbeat IPC: 3.99946 cumulative IPC: 3.99983 (Simulation time: 0 hr 1 min 44 sec) 
Heartbeat CPU 0 instructions: 60000002 cycles: 15000538 heartbeat IPC: 4 cumulative IPC: 3.99986 (Simulation time: 0 hr 2 min 5 sec) 
Heartbeat CPU 0 instructions: 70000002 cycles: 17500538 heartbeat IPC: 4 cumulative IPC: 3.99988 (Simulation time: 0 hr 2 min 25 sec) 
Heartbeat CPU 0 instructions: 80000002 cycles: 20000538 heartbeat IPC: 4 cumulative IPC: 3.99989 (Simulation time: 0 hr 2 min 46 sec) 
Heartbeat CPU 0 instructions: 90000002 cycles: 22500538 heartbeat IPC: 4 cumulative IPC: 3.9999 (Simulation time: 0 hr 3 min 7 sec) 
Heartbeat CPU 0 instructions: 100000002 cycles: 25000538 heartbeat IPC: 4 cumulative IPC: 3.99991 (Simulation time: 0 hr 3 min 27 sec) 
Heartbeat CPU 0 instructions: 110000002 cycles: 27500865 heartbeat IPC: 3.99948 cumulative IPC: 3.99987 (Simulation time: 0 hr 3 min 48 sec) 
Heartbeat CPU 0 instructions: 120000002 cycles: 30000865 heartbeat IPC: 4 cumulative IPC: 3.99988 (Simulation time: 0 hr 4 min 9 sec) 
Heartbeat CPU 0 instructions: 130000002 cycles: 32500865 heartbeat IPC: 4 cumulative IPC: 3.99989 (Simulation time: 0 hr 4 min 30 sec) 
Heartbeat CPU 0 instructions: 140000002 cycles: 35000865 heartbeat IPC: 4 cumulative IPC: 3.9999 (Simulation time: 0 hr 4 min 51 sec) 
Heartbeat CPU 0 instructions: 150000002 cycles: 37500865 heartbeat IPC: 4 cumulative IPC: 3.99991 (Simulation time: 0 hr 5 min 11 sec) 
Heartbeat CPU 0 instructions: 160000002 cycles: 40000865 heartbeat IPC: 4 cumulative IPC: 3.99991 (Simulation time: 0 hr 5 min 32 sec) 
Heartbeat CPU 0 instructions: 170000002 cycles: 42500865 heartbeat IPC: 4 cumulative IPC: 3.99992 (Simulation time: 0 hr 5 min 52 sec) 
Heartbeat CPU 0 instructions: 180000002 cycles: 45000865 heartbeat IPC: 4 cumulative IPC: 3.99992 (Simulation time: 0 hr 6 min 13 sec) 
Heartbeat CPU 0 instructions: 190000002 cycles: 47500865 heartbeat IPC: 4 cumulative IPC: 3.99993 (Simulation time: 0 hr 6 min 33 sec) 
Heartbeat CPU 0 instructions: 200000002 cycles: 50000865 heartbeat IPC: 4 cumulative IPC: 3.99993 (Simulation time: 0 hr 6 min 55 sec) 

Warmup complete CPU 0 instructions: 200000002 cycles: 50000865 (Simulation time: 0 hr 6 min 55 sec) 

Heartbeat CPU 0 instructions: 210000003 cycles: 58439323 heartbeat IPC: 1.18505 cumulative IPC: 1.18505 (Simulation time: 0 hr 7 min 13 sec) 
Heartbeat CPU 0 instructions: 220000001 cycles: 66850942 heartbeat IPC: 1.18883 cumulative IPC: 1.18694 (Simulation time: 0 hr 7 min 31 sec) 
Heartbeat CPU 0 instructions: 230000001 cycles: 75257900 heartbeat IPC: 1.18949 cumulative IPC: 1.18779 (Simulation time: 0 hr 7 min 48 sec) 
Heartbeat CPU 0 instructions: 240000000 cycles: 83785747 heartbeat IPC: 1.17263 cumulative IPC: 1.18396 (Simulation time: 0 hr 8 min 6 sec) 
Heartbeat CPU 0 instructions: 250000001 cycles: 92303057 heartbeat IPC: 1.17408 cumulative IPC: 1.18197 (Simulation time: 0 hr 8 min 23 sec) 
Heartbeat CPU 0 instructions: 260000002 cycles: 100819366 heartbeat IPC: 1.17422 cumulative IPC: 1.18067 (Simulation time: 0 hr 8 min 40 sec) 
Heartbeat CPU 0 instructions: 270000003 cycles: 109278090 heartbeat IPC: 1.18221 cumulative IPC: 1.18089 (Simulation time: 0 hr 8 min 58 sec) 
Heartbeat CPU 0 instructions: 280000003 cycles: 117776670 heartbeat IPC: 1.17667 cumulative IPC: 1.18036 (Simulation time: 0 hr 9 min 16 sec) 
Heartbeat CPU 0 instructions: 290000003 cycles: 126187579 heartbeat IPC: 1.18893 cumulative IPC: 1.18131 (Simulation time: 0 hr 9 min 33 sec) 
Heartbeat CPU 0 instructions: 300000000 cycles: 134649603 heartbeat IPC: 1.18175 cumulative IPC: 1.18135 (Simulation time: 0 hr 9 min 51 sec) 
Heartbeat CPU 0 instructions: 310000000 cycles: 143115792 heartbeat IPC: 1.18117 cumulative IPC: 1.18134 (Simulation time: 0 hr 10 min 8 sec) 
Heartbeat CPU 0 instructions: 320000001 cycles: 151499463 heartbeat IPC: 1.1928 cumulative IPC: 1.18228 (Simulation time: 0 hr 10 min 26 sec) 
Heartbeat CPU 0 instructions: 330000000 cycles: 159817318 heartbeat IPC: 1.20223 cumulative IPC: 1.18379 (Simulation time: 0 hr 10 min 43 sec) 
Heartbeat CPU 0 instructions: 340000002 cycles: 167927572 heartbeat IPC: 1.23301 cumulative IPC: 1.18718 (Simulation time: 0 hr 11 min 0 sec) 
Heartbeat CPU 0 instructions: 350000001 cycles: 176005276 heartbeat IPC: 1.23798 cumulative IPC: 1.19043 (Simulation time: 0 hr 11 min 17 sec) 
Heartbeat CPU 0 instructions: 360000002 cycles: 184081997 heartbeat IPC: 1.23813 cumulative IPC: 1.19331 (Simulation time: 0 hr 11 min 34 sec) 
Heartbeat CPU 0 instructions: 370000000 cycles: 192267445 heartbeat IPC: 1.22168 cumulative IPC: 1.19494 (Simulation time: 0 hr 11 min 51 sec) 
Heartbeat CPU 0 instructions: 380000001 cycles: 200480242 heartbeat IPC: 1.21761 cumulative IPC: 1.19618 (Simulation time: 0 hr 12 min 8 sec) 
Heartbeat CPU 0 instructions: 390000001 cycles: 208636736 heartbeat IPC: 1.22602 cumulative IPC: 1.19771 (Simulation time: 0 hr 12 min 25 sec) 
Heartbeat CPU 0 instructions: 400000002 cycles: 216869935 heartbeat IPC: 1.21459 cumulative IPC: 1.19854 (Simulation time: 0 hr 12 min 42 sec) 
Heartbeat CPU 0 instructions: 410000000 cycles: 225091690 heartbeat IPC: 1.21629 cumulative IPC: 1.19938 (Simulation time: 0 hr 13 min 0 sec) 
Heartbeat CPU 0 instructions: 420000001 cycles: 233384632 heartbeat IPC: 1.20584 cumulative IPC: 1.19967 (Simulation time: 0 hr 13 min 17 sec) 
Heartbeat CPU 0 instructions: 430000003 cycles: 241443741 heartbeat IPC: 1.24083 cumulative IPC: 1.2014 (Simulation time: 0 hr 13 min 34 sec) 
Heartbeat CPU 0 instructions: 440000000 cycles: 249705123 heartbeat IPC: 1.21045 cumulative IPC: 1.20178 (Simulation time: 0 hr 13 min 51 sec) 
Heartbeat CPU 0 instructions: 450000001 cycles: 257954771 heartbeat IPC: 1.21217 cumulative IPC: 1.20219 (Simulation time: 0 hr 14 min 9 sec) 
Heartbeat CPU 0 instructions: 460000001 cycles: 266249725 heartbeat IPC: 1.20555 cumulative IPC: 1.20232 (Simulation time: 0 hr 14 min 26 sec) 
Heartbeat CPU 0 instructions: 470000001 cycles: 274538367 heartbeat IPC: 1.20647 cumulative IPC: 1.20247 (Simulation time: 0 hr 14 min 43 sec) 
Heartbeat CPU 0 instructions: 480000000 cycles: 282785199 heartbeat IPC: 1.21259 cumulative IPC: 1.20283 (Simulation time: 0 hr 15 min 1 sec) 
Heartbeat CPU 0 instructions: 490000000 cycles: 291211494 heartbeat IPC: 1.18676 cumulative IPC: 1.20227 (Simulation time: 0 hr 15 min 19 sec) 
Heartbeat CPU 0 instructions: 500000000 cycles: 299717645 heartbeat IPC: 1.17562 cumulative IPC: 1.20136 (Simulation time: 0 hr 15 min 36 sec) 
Heartbeat CPU 0 instructions: 510000002 cycles: 308192741 heartbeat IPC: 1.17993 cumulative IPC: 1.20066 (Simulation time: 0 hr 15 min 54 sec) 
Heartbeat CPU 0 instructions: 520000004 cycles: 316699594 heartbeat IPC: 1.17552 cumulative IPC: 1.19986 (Simulation time: 0 hr 16 min 11 sec) 
Heartbeat CPU 0 instructions: 530000003 cycles: 325202328 heartbeat IPC: 1.17609 cumulative IPC: 1.19912 (Simulation time: 0 hr 16 min 29 sec) 
Heartbeat CPU 0 instructions: 540000004 cycles: 333669333 heartbeat IPC: 1.18106 cumulative IPC: 1.19858 (Simulation time: 0 hr 16 min 47 sec) 
Heartbeat CPU 0 instructions: 550000002 cycles: 342155187 heartbeat IPC: 1.17843 cumulative IPC: 1.198 (Simulation time: 0 hr 17 min 4 sec) 
Heartbeat CPU 0 instructions: 560000000 cycles: 350473969 heartbeat IPC: 1.2021 cumulative IPC: 1.19811 (Simulation time: 0 hr 17 min 22 sec) 
Heartbeat CPU 0 instructions: 570000002 cycles: 358813530 heartbeat IPC: 1.1991 cumulative IPC: 1.19814 (Simulation time: 0 hr 17 min 39 sec) 
Heartbeat CPU 0 instructions: 580000003 cycles: 367136011 heartbeat IPC: 1.20156 cumulative IPC: 1.19823 (Simulation time: 0 hr 17 min 56 sec) 
Heartbeat CPU 0 instructions: 590000002 cycles: 375364596 heartbeat IPC: 1.21528 cumulative IPC: 1.19866 (Simulation time: 0 hr 18 min 13 sec) 
Heartbeat CPU 0 instructions: 600000002 cycles: 383574421 heartbeat IPC: 1.21805 cumulative IPC: 1.19914 (Simulation time: 0 hr 18 min 30 sec) 
Heartbeat CPU 0 instructions: 610000000 cycles: 391955445 heartbeat IPC: 1.19317 cumulative IPC: 1.19899 (Simulation time: 0 hr 18 min 47 sec) 
Heartbeat CPU 0 instructions: 620000001 cycles: 400226367 heartbeat IPC: 1.20906 cumulative IPC: 1.19923 (Simulation time: 0 hr 19 min 4 sec) 
Heartbeat CPU 0 instructions: 630000003 cycles: 408460675 heartbeat IPC: 1.21443 cumulative IPC: 1.19958 (Simulation time: 0 hr 19 min 22 sec) 
Heartbeat CPU 0 instructions: 640000004 cycles: 416848754 heartbeat IPC: 1.19217 cumulative IPC: 1.19941 (Simulation time: 0 hr 19 min 39 sec) 
Heartbeat CPU 0 instructions: 650000002 cycles: 425259275 heartbeat IPC: 1.18899 cumulative IPC: 1.19917 (Simulation time: 0 hr 19 min 56 sec) 
Heartbeat CPU 0 instructions: 660000002 cycles: 433675905 heartbeat IPC: 1.18812 cumulative IPC: 1.19893 (Simulation time: 0 hr 20 min 14 sec) 
Heartbeat CPU 0 instructions: 670000001 cycles: 442264639 heartbeat IPC: 1.16432 cumulative IPC: 1.19817 (Simulation time: 0 hr 20 min 31 sec) 
Heartbeat CPU 0 instructions: 680000004 cycles: 450916031 heartbeat IPC: 1.15588 cumulative IPC: 1.19726 (Simulation time: 0 hr 20 min 48 sec) 
Heartbeat CPU 0 instructions: 690000002 cycles: 459509352 heartbeat IPC: 1.16369 cumulative IPC: 1.19656 (Simulation time: 0 hr 21 min 6 sec) 
Heartbeat CPU 0 instructions: 700000003 cycles: 468037062 heartbeat IPC: 1.17265 cumulative IPC: 1.19607 (Simulation time: 0 hr 21 min 24 sec) 
Finished CPU 0 instructions: 500000001 cycles: 418036197 cumulative IPC: 1.19607 (Simulation time: 0 hr 21 min 24 sec) 

ChampSim completed all CPUs

Region of Interest Statistics

CPU 0 cumulative IPC: 1.19607 instructions: 500000001 cycles: 418036197
cpu0_L1I TOTAL     ACCESS:   33342643  HIT:   33342541  MISS:        102
cpu0_L1I LOAD      ACCESS:   33342643  HIT:   33342541  MISS:        102
cpu0_L1I RFO       ACCESS:          0  HIT:          0  MISS:          0
cpu0_L1I PREFETCH  ACCESS:          0  HIT:          0  MISS:          0
cpu0_L1I WRITEBACK ACCESS:          0  HIT:          0  MISS:          0
cpu0_L1I TRANSLATION ACCESS:          0  HIT:          0  MISS:          0
cpu0_L1I PREFETCH  REQUESTED:          0  ISSUED:          0  USEFUL:          0  USELESS:          0
cpu0_L1I AVERAGE MISS LATENCY: 110.02 cycles
cpu0_DTLB TOTAL     ACCESS:   77357275  HIT:   77357274  MISS:          1
cpu0_DTLB LOAD      ACCESS:   36399897  HIT:   36399896  MISS:          1
cpu0_DTLB RFO       ACCESS:   40957378  HIT:   40957378  MISS:          0
cpu0_DTLB PREFETCH  ACCESS:          0  HIT:          0  MISS:          0
cpu0_DTLB WRITEBACK ACCESS:          0  HIT:          0  MISS:          0
cpu0_DTLB TRANSLATION ACCESS:          0  HIT:          0  MISS:          0
cpu0_DTLB PREFETCH  REQUESTED:          0  ISSUED:          0  USEFUL:          0  USELESS:          0
cpu0_DTLB AVERAGE MISS LATENCY: 217 cycles
cpu0_ITLB TOTAL     ACCESS:   51281749  HIT:   51281749  MISS:          0
cpu0_ITLB LOAD      ACCESS:   51281749  HIT:   51281749  MISS:          0
cpu0_ITLB RFO       ACCESS:          0  HIT:          0  MISS:          0
cpu0_ITLB PREFETCH  ACCESS:          0  HIT:          0  MISS:          0
cpu0_ITLB WRITEBACK ACCESS:          0  HIT:          0  MISS:          0
cpu0_ITLB TRANSLATION ACCESS:          0  HIT:          0  MISS:          0
cpu0_ITLB PREFETCH  REQUESTED:          0  ISSUED:          0  USEFUL:          0  USELESS:          0
cpu0_ITLB AVERAGE MISS LATENCY: -nan cycles
cpu0_STLB TOTAL     ACCESS:          1  HIT:          0  MISS:          1
cpu0_STLB LOAD      ACCESS:          1  HIT:          0  MISS:          1
cpu0_STLB RFO       ACCESS:          0  HIT:          0  MISS:          0
cpu0_STLB PREFETCH  ACCESS:          0  HIT:          0  MISS:          0
cpu0_STLB WRITEBACK ACCESS:          0  HIT:          0  MISS:          0
cpu0_STLB TRANSLATION ACCESS:          0  HIT:          0  MISS:          0
cpu0_STLB PREFETCH  REQUESTED:          0  ISSUED:          0  USEFUL:          0  USELESS:          0
cpu0_STLB AVERAGE MISS LATENCY: 208 cycles
cpu0_L1D TOTAL     ACCESS:  140757528  HIT:  140757505  MISS:         23
cpu0_L1D LOAD      ACCESS:   65813752  HIT:   65813747  MISS:          5
cpu0_L1D RFO       ACCESS:   74943775  HIT:   74943757  MISS:         18
cpu0_L1D PREFETCH  ACCESS:          0  HIT:          0  MISS:          0
cpu0_L1D WRITEBACK ACCESS:          0  HIT:          0  MISS:          0
cpu0_L1D TRANSLATION ACCESS:          1  HIT:          1  MISS:          0
cpu0_L1D PREFETCH  REQUESTED:          0  ISSUED:          0  USEFUL:          0  USELESS:          0
cpu0_L1D AVERAGE MISS LATENCY: 215.13 cycles
cpu0_L2C TOTAL     ACCESS:        125  HIT:          0  MISS:        125
cpu0_L2C LOAD      ACCESS:        107  HIT:          0  MISS:        107
cpu0_L2C RFO       ACCESS:         18  HIT:          0  MISS:         18
cpu0_L2C PREFETCH  ACCESS:          0  HIT:          0  MISS:          0
cpu0_L2C WRITEBACK ACCESS:          0  HIT:          0  MISS:          0
cpu0_L2C TRANSLATION ACCESS:          0  HIT:          0  MISS:          0
cpu0_L2C PREFETCH  REQUESTED:          0  ISSUED:          0  USEFUL:          0  USELESS:          0
cpu0_L2C AVERAGE MISS LATENCY: 118.352 cycles
LLC TOTAL     ACCESS:        176  HIT:         60  MISS:        116
LLC LOAD      ACCESS:        107  HIT:         43  MISS:         64
LLC RFO       ACCESS:         18  HIT:          0  MISS:         18
LLC PREFETCH  ACCESS:         51  HIT:         17  MISS:         34
LLC WRITEBACK ACCESS:          0  HIT:          0  MISS:          0
LLC TRANSLATION ACCESS:          0  HIT:          0  MISS:          0
LLC PREFETCH  REQUESTED:        107  ISSUED:        107  USEFUL:         75  USELESS:          0
LLC AVERAGE MISS LATENCY: 127.103 cycles

DRAM Statistics
 CHANNEL 0
 RQ ROW_BUFFER_HIT:         28  ROW_BUFFER_MISS:         88
 DBUS AVG_CONGESTED_CYCLE:    3.78986
 WQ ROW_BUFFER_HIT:          0  ROW_BUFFER_MISS:          0  FULL:          0


CPU 0 Branch Prediction Accuracy: 74.8633% MPKI: 34.7615 Average ROB Occupancy at Mispredict: 11.6131
Branch type MPKI
BRANCH_DIRECT_JUMP: 1.8e-05
BRANCH_INDIRECT: 0
BRANCH_CONDITIONAL: 34.7615
BRANCH_DIRECT_CALL: 2e-06
BRANCH_INDIRECT_CALL: 0
BRANCH_RETURN: 2e-06

