/home/caslab/workspace/sim/ChampSim/bin/champsim --warmup_instructions 200000000 --simulation_instructions 500000000/ /home/caslab/workspace/sim/traces/speccpu_by_champsim648.exchange2_s-584B.champsimtrace.xz
start simulation for 648.exchange2_s-584B.champsimtrace.xz

*** ChampSim Multicore Out-of-Order Simulator ***

Warmup Instructions: 200000000
Simulation Instructions: 500000000
Number of CPUs: 1
Off-chip DRAM Size: 4 GiB Channels: 1 Width: 64-bit Data Rate: 3200 MT/s

VirtualMemory physical capacity: 8588881920 num_ppages: 2096895
VirtualMemory page size: 4096 log2_page_size: 12

CPU 0 runs /home/caslab/workspace/sim/traces/speccpu_by_champsim/648.exchange2_s-584B.champsimtrace.xz
CPU 0 Bimodal branch predictor
Basic BTB sets: 1024 ways: 8 indirect buffer size: 4096 RAS size: 64
LLC next line prefetcher
WARNING: The extended signature CACHE::prefetch_line(ip, base_addr, pf_addr, fill_this_level, prefetch_metadata) is deprecated.
WARNING: Use CACHE::prefetch_line(pf_addr, fill_this_level, prefetch_metadata) instead.
Heartbeat CPU 0 instructions: 10000001 cycles: 2500212 heartbeat IPC: 3.99966 cumulative IPC: 3.99966 (Simulation time: 0 hr 0 min 21 sec) 
Heartbeat CPU 0 instructions: 20000001 cycles: 5000212 heartbeat IPC: 4 cumulative IPC: 3.99983 (Simulation time: 0 hr 0 min 43 sec) 
Heartbeat CPU 0 instructions: 30000003 cycles: 7500552 heartbeat IPC: 3.99946 cumulative IPC: 3.99971 (Simulation time: 0 hr 1 min 3 sec) 
Heartbeat CPU 0 instructions: 40000003 cycles: 10000552 heartbeat IPC: 4 cumulative IPC: 3.99978 (Simulation time: 0 hr 1 min 24 sec) 
Heartbeat CPU 0 instructions: 50000003 cycles: 12500552 heartbeat IPC: 4 cumulative IPC: 3.99982 (Simulation time: 0 hr 1 min 45 sec) 
Heartbeat CPU 0 instructions: 60000003 cycles: 15000552 heartbeat IPC: 4 cumulative IPC: 3.99985 (Simulation time: 0 hr 2 min 6 sec) 
Heartbeat CPU 0 instructions: 70000003 cycles: 17500552 heartbeat IPC: 4 cumulative IPC: 3.99987 (Simulation time: 0 hr 2 min 27 sec) 
Heartbeat CPU 0 instructions: 80000003 cycles: 20000552 heartbeat IPC: 4 cumulative IPC: 3.99989 (Simulation time: 0 hr 2 min 49 sec) 
Heartbeat CPU 0 instructions: 90000003 cycles: 22500879 heartbeat IPC: 3.99948 cumulative IPC: 3.99984 (Simulation time: 0 hr 3 min 9 sec) 
Heartbeat CPU 0 instructions: 100000003 cycles: 25000879 heartbeat IPC: 4 cumulative IPC: 3.99986 (Simulation time: 0 hr 3 min 30 sec) 
Heartbeat CPU 0 instructions: 110000003 cycles: 27500879 heartbeat IPC: 4 cumulative IPC: 3.99987 (Simulation time: 0 hr 3 min 50 sec) 
Heartbeat CPU 0 instructions: 120000003 cycles: 30000879 heartbeat IPC: 4 cumulative IPC: 3.99988 (Simulation time: 0 hr 4 min 11 sec) 
Heartbeat CPU 0 instructions: 130000003 cycles: 32500879 heartbeat IPC: 4 cumulative IPC: 3.99989 (Simulation time: 0 hr 4 min 32 sec) 
Heartbeat CPU 0 instructions: 140000003 cycles: 35000879 heartbeat IPC: 4 cumulative IPC: 3.9999 (Simulation time: 0 hr 4 min 53 sec) 
Heartbeat CPU 0 instructions: 150000003 cycles: 37500879 heartbeat IPC: 4 cumulative IPC: 3.99991 (Simulation time: 0 hr 5 min 13 sec) 
Heartbeat CPU 0 instructions: 160000003 cycles: 40000879 heartbeat IPC: 4 cumulative IPC: 3.99991 (Simulation time: 0 hr 5 min 34 sec) 
Heartbeat CPU 0 instructions: 170000003 cycles: 42500879 heartbeat IPC: 4 cumulative IPC: 3.99992 (Simulation time: 0 hr 5 min 55 sec) 
Heartbeat CPU 0 instructions: 180000003 cycles: 45000879 heartbeat IPC: 4 cumulative IPC: 3.99992 (Simulation time: 0 hr 6 min 16 sec) 
Heartbeat CPU 0 instructions: 190000003 cycles: 47500879 heartbeat IPC: 4 cumulative IPC: 3.99993 (Simulation time: 0 hr 6 min 37 sec) 
Heartbeat CPU 0 instructions: 200000003 cycles: 50000879 heartbeat IPC: 4 cumulative IPC: 3.99993 (Simulation time: 0 hr 6 min 58 sec) 

Warmup complete CPU 0 instructions: 200000003 cycles: 50000879 (Simulation time: 0 hr 6 min 58 sec) 

Heartbeat CPU 0 instructions: 210000001 cycles: 58736733 heartbeat IPC: 1.14471 cumulative IPC: 1.14471 (Simulation time: 0 hr 7 min 16 sec) 
Heartbeat CPU 0 instructions: 220000004 cycles: 67318748 heartbeat IPC: 1.16523 cumulative IPC: 1.15488 (Simulation time: 0 hr 7 min 34 sec) 
Heartbeat CPU 0 instructions: 230000000 cycles: 75898672 heartbeat IPC: 1.16551 cumulative IPC: 1.1584 (Simulation time: 0 hr 7 min 52 sec) 
Heartbeat CPU 0 instructions: 240000001 cycles: 84212746 heartbeat IPC: 1.20278 cumulative IPC: 1.16918 (Simulation time: 0 hr 8 min 9 sec) 
Heartbeat CPU 0 instructions: 250000000 cycles: 92673448 heartbeat IPC: 1.18193 cumulative IPC: 1.17171 (Simulation time: 0 hr 8 min 26 sec) 
Heartbeat CPU 0 instructions: 260000000 cycles: 101156166 heartbeat IPC: 1.17887 cumulative IPC: 1.1729 (Simulation time: 0 hr 8 min 44 sec) 
Heartbeat CPU 0 instructions: 270000001 cycles: 109717724 heartbeat IPC: 1.16801 cumulative IPC: 1.1722 (Simulation time: 0 hr 9 min 1 sec) 
Heartbeat CPU 0 instructions: 280000000 cycles: 118060800 heartbeat IPC: 1.1986 cumulative IPC: 1.17543 (Simulation time: 0 hr 9 min 18 sec) 
Heartbeat CPU 0 instructions: 290000003 cycles: 126410598 heartbeat IPC: 1.19763 cumulative IPC: 1.17786 (Simulation time: 0 hr 9 min 35 sec) 
Heartbeat CPU 0 instructions: 300000002 cycles: 134759823 heartbeat IPC: 1.19772 cumulative IPC: 1.17982 (Simulation time: 0 hr 9 min 52 sec) 
Heartbeat CPU 0 instructions: 310000001 cycles: 143224103 heartbeat IPC: 1.18144 cumulative IPC: 1.17996 (Simulation time: 0 hr 10 min 9 sec) 
Heartbeat CPU 0 instructions: 320000000 cycles: 151698197 heartbeat IPC: 1.18007 cumulative IPC: 1.17997 (Simulation time: 0 hr 10 min 27 sec) 
Heartbeat CPU 0 instructions: 330000001 cycles: 160128633 heartbeat IPC: 1.18618 cumulative IPC: 1.18045 (Simulation time: 0 hr 10 min 44 sec) 
Heartbeat CPU 0 instructions: 340000002 cycles: 168638319 heartbeat IPC: 1.17513 cumulative IPC: 1.18007 (Simulation time: 0 hr 11 min 1 sec) 
Heartbeat CPU 0 instructions: 350000000 cycles: 177118150 heartbeat IPC: 1.17927 cumulative IPC: 1.18001 (Simulation time: 0 hr 11 min 18 sec) 
Heartbeat CPU 0 instructions: 360000003 cycles: 185562603 heartbeat IPC: 1.18421 cumulative IPC: 1.18027 (Simulation time: 0 hr 11 min 35 sec) 
Heartbeat CPU 0 instructions: 370000002 cycles: 193996624 heartbeat IPC: 1.18567 cumulative IPC: 1.18059 (Simulation time: 0 hr 11 min 52 sec) 
Heartbeat CPU 0 instructions: 380000004 cycles: 202469275 heartbeat IPC: 1.18027 cumulative IPC: 1.18057 (Simulation time: 0 hr 12 min 10 sec) 
Heartbeat CPU 0 instructions: 390000002 cycles: 210998127 heartbeat IPC: 1.17249 cumulative IPC: 1.18014 (Simulation time: 0 hr 12 min 28 sec) 
Heartbeat CPU 0 instructions: 400000000 cycles: 219536715 heartbeat IPC: 1.17115 cumulative IPC: 1.17969 (Simulation time: 0 hr 12 min 45 sec) 
Heartbeat CPU 0 instructions: 410000002 cycles: 227887184 heartbeat IPC: 1.19754 cumulative IPC: 1.18053 (Simulation time: 0 hr 13 min 3 sec) 
Heartbeat CPU 0 instructions: 420000003 cycles: 236352930 heartbeat IPC: 1.18123 cumulative IPC: 1.18056 (Simulation time: 0 hr 13 min 21 sec) 
Heartbeat CPU 0 instructions: 430000001 cycles: 244784209 heartbeat IPC: 1.18606 cumulative IPC: 1.1808 (Simulation time: 0 hr 13 min 39 sec) 
Heartbeat CPU 0 instructions: 440000004 cycles: 253302918 heartbeat IPC: 1.17389 cumulative IPC: 1.18051 (Simulation time: 0 hr 13 min 57 sec) 
Heartbeat CPU 0 instructions: 450000000 cycles: 261829488 heartbeat IPC: 1.1728 cumulative IPC: 1.1802 (Simulation time: 0 hr 14 min 14 sec) 
Heartbeat CPU 0 instructions: 460000001 cycles: 270299662 heartbeat IPC: 1.18061 cumulative IPC: 1.18022 (Simulation time: 0 hr 14 min 31 sec) 
Heartbeat CPU 0 instructions: 470000001 cycles: 278929031 heartbeat IPC: 1.15883 cumulative IPC: 1.17941 (Simulation time: 0 hr 14 min 49 sec) 
Heartbeat CPU 0 instructions: 480000002 cycles: 287435550 heartbeat IPC: 1.17557 cumulative IPC: 1.17927 (Simulation time: 0 hr 15 min 6 sec) 
Heartbeat CPU 0 instructions: 490000002 cycles: 295882909 heartbeat IPC: 1.1838 cumulative IPC: 1.17943 (Simulation time: 0 hr 15 min 23 sec) 
Heartbeat CPU 0 instructions: 500000002 cycles: 304371849 heartbeat IPC: 1.178 cumulative IPC: 1.17938 (Simulation time: 0 hr 15 min 40 sec) 
Heartbeat CPU 0 instructions: 510000002 cycles: 312863092 heartbeat IPC: 1.17768 cumulative IPC: 1.17933 (Simulation time: 0 hr 15 min 58 sec) 
Heartbeat CPU 0 instructions: 520000001 cycles: 321310174 heartbeat IPC: 1.18384 cumulative IPC: 1.17947 (Simulation time: 0 hr 16 min 16 sec) 
Heartbeat CPU 0 instructions: 530000000 cycles: 329790377 heartbeat IPC: 1.17922 cumulative IPC: 1.17946 (Simulation time: 0 hr 16 min 33 sec) 
Heartbeat CPU 0 instructions: 540000002 cycles: 338335945 heartbeat IPC: 1.1702 cumulative IPC: 1.17918 (Simulation time: 0 hr 16 min 51 sec) 
Heartbeat CPU 0 instructions: 550000000 cycles: 346885263 heartbeat IPC: 1.16968 cumulative IPC: 1.17891 (Simulation time: 0 hr 17 min 9 sec) 
Heartbeat CPU 0 instructions: 560000000 cycles: 355440927 heartbeat IPC: 1.16882 cumulative IPC: 1.17863 (Simulation time: 0 hr 17 min 27 sec) 
Heartbeat CPU 0 instructions: 570000000 cycles: 363901398 heartbeat IPC: 1.18197 cumulative IPC: 1.17872 (Simulation time: 0 hr 17 min 44 sec) 
Heartbeat CPU 0 instructions: 580000003 cycles: 372398763 heartbeat IPC: 1.17684 cumulative IPC: 1.17867 (Simulation time: 0 hr 18 min 1 sec) 
Heartbeat CPU 0 instructions: 590000000 cycles: 380848709 heartbeat IPC: 1.18344 cumulative IPC: 1.17879 (Simulation time: 0 hr 18 min 18 sec) 
Heartbeat CPU 0 instructions: 600000001 cycles: 389277251 heartbeat IPC: 1.18644 cumulative IPC: 1.17898 (Simulation time: 0 hr 18 min 36 sec) 
Heartbeat CPU 0 instructions: 610000002 cycles: 397748888 heartbeat IPC: 1.18041 cumulative IPC: 1.17901 (Simulation time: 0 hr 18 min 53 sec) 
Heartbeat CPU 0 instructions: 620000003 cycles: 406242538 heartbeat IPC: 1.17735 cumulative IPC: 1.17897 (Simulation time: 0 hr 19 min 11 sec) 
Heartbeat CPU 0 instructions: 630000002 cycles: 414786786 heartbeat IPC: 1.17038 cumulative IPC: 1.17877 (Simulation time: 0 hr 19 min 28 sec) 
Heartbeat CPU 0 instructions: 640000004 cycles: 423340310 heartbeat IPC: 1.16911 cumulative IPC: 1.17855 (Simulation time: 0 hr 19 min 46 sec) 
Heartbeat CPU 0 instructions: 650000000 cycles: 431872854 heartbeat IPC: 1.17198 cumulative IPC: 1.17841 (Simulation time: 0 hr 20 min 4 sec) 
Heartbeat CPU 0 instructions: 660000001 cycles: 440445961 heartbeat IPC: 1.16644 cumulative IPC: 1.17814 (Simulation time: 0 hr 20 min 21 sec) 
Heartbeat CPU 0 instructions: 670000000 cycles: 449054961 heartbeat IPC: 1.16157 cumulative IPC: 1.17779 (Simulation time: 0 hr 20 min 38 sec) 
Heartbeat CPU 0 instructions: 680000001 cycles: 457566362 heartbeat IPC: 1.17489 cumulative IPC: 1.17772 (Simulation time: 0 hr 20 min 56 sec) 
Heartbeat CPU 0 instructions: 690000001 cycles: 466068771 heartbeat IPC: 1.17614 cumulative IPC: 1.17769 (Simulation time: 0 hr 21 min 13 sec) 
Heartbeat CPU 0 instructions: 700000000 cycles: 474493958 heartbeat IPC: 1.18692 cumulative IPC: 1.17788 (Simulation time: 0 hr 21 min 31 sec) 
Finished CPU 0 instructions: 500000000 cycles: 424493093 cumulative IPC: 1.17788 (Simulation time: 0 hr 21 min 31 sec) 

ChampSim completed all CPUs

Region of Interest Statistics

CPU 0 cumulative IPC: 1.17788 instructions: 500000000 cycles: 424493093
cpu0_L1I TOTAL     ACCESS:   33526456  HIT:   33526421  MISS:         35
cpu0_L1I LOAD      ACCESS:   33526456  HIT:   33526421  MISS:         35
cpu0_L1I RFO       ACCESS:          0  HIT:          0  MISS:          0
cpu0_L1I PREFETCH  ACCESS:          0  HIT:          0  MISS:          0
cpu0_L1I WRITEBACK ACCESS:          0  HIT:          0  MISS:          0
cpu0_L1I TRANSLATION ACCESS:          0  HIT:          0  MISS:          0
cpu0_L1I PREFETCH  REQUESTED:          0  ISSUED:          0  USEFUL:          0  USELESS:          0
cpu0_L1I AVERAGE MISS LATENCY: 199.257 cycles
cpu0_DTLB TOTAL     ACCESS:   76012330  HIT:   76012329  MISS:          1
cpu0_DTLB LOAD      ACCESS:   35876598  HIT:   35876597  MISS:          1
cpu0_DTLB RFO       ACCESS:   40135732  HIT:   40135732  MISS:          0
cpu0_DTLB PREFETCH  ACCESS:          0  HIT:          0  MISS:          0
cpu0_DTLB WRITEBACK ACCESS:          0  HIT:          0  MISS:          0
cpu0_DTLB TRANSLATION ACCESS:          0  HIT:          0  MISS:          0
cpu0_DTLB PREFETCH  REQUESTED:          0  ISSUED:          0  USEFUL:          0  USELESS:          0
cpu0_DTLB AVERAGE MISS LATENCY: 217 cycles
cpu0_ITLB TOTAL     ACCESS:   49797799  HIT:   49797799  MISS:          0
cpu0_ITLB LOAD      ACCESS:   49797799  HIT:   49797799  MISS:          0
cpu0_ITLB RFO       ACCESS:          0  HIT:          0  MISS:          0
cpu0_ITLB PREFETCH  ACCESS:          0  HIT:          0  MISS:          0
cpu0_ITLB WRITEBACK ACCESS:          0  HIT:          0  MISS:          0
cpu0_ITLB TRANSLATION ACCESS:          0  HIT:          0  MISS:          0
cpu0_ITLB PREFETCH  REQUESTED:          0  ISSUED:          0  USEFUL:          0  USELESS:          0
cpu0_ITLB AVERAGE MISS LATENCY: -nan cycles
cpu0_STLB TOTAL     ACCESS:          1  HIT:          0  MISS:          1
cpu0_STLB LOAD      ACCESS:          1  HIT:          0  MISS:          1
cpu0_STLB RFO       ACCESS:          0  HIT:          0  MISS:          0
cpu0_STLB PREFETCH  ACCESS:          0  HIT:          0  MISS:          0
cpu0_STLB WRITEBACK ACCESS:          0  HIT:          0  MISS:          0
cpu0_STLB TRANSLATION ACCESS:          0  HIT:          0  MISS:          0
cpu0_STLB PREFETCH  REQUESTED:          0  ISSUED:          0  USEFUL:          0  USELESS:          0
cpu0_STLB AVERAGE MISS LATENCY: 208 cycles
cpu0_L1D TOTAL     ACCESS:  137898669  HIT:  137898652  MISS:         17
cpu0_L1D LOAD      ACCESS:   65118954  HIT:   65118949  MISS:          5
cpu0_L1D RFO       ACCESS:   72779714  HIT:   72779702  MISS:         12
cpu0_L1D PREFETCH  ACCESS:          0  HIT:          0  MISS:          0
cpu0_L1D WRITEBACK ACCESS:          0  HIT:          0  MISS:          0
cpu0_L1D TRANSLATION ACCESS:          1  HIT:          1  MISS:          0
cpu0_L1D PREFETCH  REQUESTED:          0  ISSUED:          0  USEFUL:          0  USELESS:          0
cpu0_L1D AVERAGE MISS LATENCY: 296.353 cycles
cpu0_L2C TOTAL     ACCESS:         52  HIT:          0  MISS:         52
cpu0_L2C LOAD      ACCESS:         40  HIT:          0  MISS:         40
cpu0_L2C RFO       ACCESS:         12  HIT:          0  MISS:         12
cpu0_L2C PREFETCH  ACCESS:          0  HIT:          0  MISS:          0
cpu0_L2C WRITEBACK ACCESS:          0  HIT:          0  MISS:          0
cpu0_L2C TRANSLATION ACCESS:          0  HIT:          0  MISS:          0
cpu0_L2C PREFETCH  REQUESTED:          0  ISSUED:          0  USEFUL:          0  USELESS:          0
cpu0_L2C AVERAGE MISS LATENCY: 220 cycles
LLC TOTAL     ACCESS:         68  HIT:         16  MISS:         52
LLC LOAD      ACCESS:         40  HIT:         12  MISS:         28
LLC RFO       ACCESS:         12  HIT:          0  MISS:         12
LLC PREFETCH  ACCESS:         16  HIT:          4  MISS:         12
LLC WRITEBACK ACCESS:          0  HIT:          0  MISS:          0
LLC TRANSLATION ACCESS:          0  HIT:          0  MISS:          0
LLC PREFETCH  REQUESTED:         40  ISSUED:         40  USEFUL:         20  USELESS:          0
LLC AVERAGE MISS LATENCY: 224.135 cycles

DRAM Statistics
 CHANNEL 0
 RQ ROW_BUFFER_HIT:          5  ROW_BUFFER_MISS:         47
 DBUS AVG_CONGESTED_CYCLE:    3.94495
 WQ ROW_BUFFER_HIT:          0  ROW_BUFFER_MISS:          0  FULL:          0


CPU 0 Branch Prediction Accuracy: 75.4872% MPKI: 34.9849 Average ROB Occupancy at Mispredict: 11.261
Branch type MPKI
BRANCH_DIRECT_JUMP: 2e-06
BRANCH_INDIRECT: 0
BRANCH_CONDITIONAL: 34.9849
BRANCH_DIRECT_CALL: 0
BRANCH_INDIRECT_CALL: 0
BRANCH_RETURN: 0

