/home/caslab/workspace/sim/ChampSim/bin/champsim --warmup_instructions 200000000 --simulation_instructions 500000000/ /home/caslab/workspace/sim/traces/speccpu_by_champsim648.exchange2_s-1712B.champsimtrace.xz
start simulation for 648.exchange2_s-1712B.champsimtrace.xz

*** ChampSim Multicore Out-of-Order Simulator ***

Warmup Instructions: 200000000
Simulation Instructions: 500000000
Number of CPUs: 1
Off-chip DRAM Size: 4 GiB Channels: 1 Width: 64-bit Data Rate: 3200 MT/s

VirtualMemory physical capacity: 8588881920 num_ppages: 2096895
VirtualMemory page size: 4096 log2_page_size: 12

CPU 0 runs /home/caslab/workspace/sim/traces/speccpu_by_champsim/648.exchange2_s-1712B.champsimtrace.xz
CPU 0 Bimodal branch predictor
Basic BTB sets: 1024 ways: 8 indirect buffer size: 4096 RAS size: 64
LLC next line prefetcher
WARNING: The extended signature CACHE::prefetch_line(ip, base_addr, pf_addr, fill_this_level, prefetch_metadata) is deprecated.
WARNING: Use CACHE::prefetch_line(pf_addr, fill_this_level, prefetch_metadata) instead.
Heartbeat CPU 0 instructions: 10000003 cycles: 2500148 heartbeat IPC: 3.99976 cumulative IPC: 3.99976 (Simulation time: 0 hr 0 min 22 sec) 
Heartbeat CPU 0 instructions: 20000003 cycles: 5000148 heartbeat IPC: 4 cumulative IPC: 3.99988 (Simulation time: 0 hr 0 min 43 sec) 
Heartbeat CPU 0 instructions: 30000003 cycles: 7500148 heartbeat IPC: 4 cumulative IPC: 3.99992 (Simulation time: 0 hr 1 min 5 sec) 
Heartbeat CPU 0 instructions: 40000003 cycles: 10000148 heartbeat IPC: 4 cumulative IPC: 3.99994 (Simulation time: 0 hr 1 min 27 sec) 
Heartbeat CPU 0 instructions: 50000003 cycles: 12500148 heartbeat IPC: 4 cumulative IPC: 3.99995 (Simulation time: 0 hr 1 min 49 sec) 
Heartbeat CPU 0 instructions: 60000003 cycles: 15000148 heartbeat IPC: 4 cumulative IPC: 3.99996 (Simulation time: 0 hr 2 min 11 sec) 
Heartbeat CPU 0 instructions: 70000003 cycles: 17500148 heartbeat IPC: 4 cumulative IPC: 3.99997 (Simulation time: 0 hr 2 min 33 sec) 
Heartbeat CPU 0 instructions: 80000003 cycles: 20000148 heartbeat IPC: 4 cumulative IPC: 3.99997 (Simulation time: 0 hr 2 min 55 sec) 
Heartbeat CPU 0 instructions: 90000003 cycles: 22500148 heartbeat IPC: 4 cumulative IPC: 3.99997 (Simulation time: 0 hr 3 min 16 sec) 
Heartbeat CPU 0 instructions: 100000003 cycles: 25000148 heartbeat IPC: 4 cumulative IPC: 3.99998 (Simulation time: 0 hr 3 min 38 sec) 
Heartbeat CPU 0 instructions: 110000003 cycles: 27500148 heartbeat IPC: 4 cumulative IPC: 3.99998 (Simulation time: 0 hr 3 min 59 sec) 
Heartbeat CPU 0 instructions: 120000003 cycles: 30000148 heartbeat IPC: 4 cumulative IPC: 3.99998 (Simulation time: 0 hr 4 min 21 sec) 
Heartbeat CPU 0 instructions: 130000003 cycles: 32500148 heartbeat IPC: 4 cumulative IPC: 3.99998 (Simulation time: 0 hr 4 min 43 sec) 
Heartbeat CPU 0 instructions: 140000003 cycles: 35000148 heartbeat IPC: 4 cumulative IPC: 3.99998 (Simulation time: 0 hr 5 min 5 sec) 
Heartbeat CPU 0 instructions: 150000003 cycles: 37500148 heartbeat IPC: 4 cumulative IPC: 3.99998 (Simulation time: 0 hr 5 min 26 sec) 
Heartbeat CPU 0 instructions: 160000003 cycles: 40000148 heartbeat IPC: 4 cumulative IPC: 3.99999 (Simulation time: 0 hr 5 min 48 sec) 
Heartbeat CPU 0 instructions: 170000003 cycles: 42500148 heartbeat IPC: 4 cumulative IPC: 3.99999 (Simulation time: 0 hr 6 min 9 sec) 
Heartbeat CPU 0 instructions: 180000003 cycles: 45000148 heartbeat IPC: 4 cumulative IPC: 3.99999 (Simulation time: 0 hr 6 min 30 sec) 
Heartbeat CPU 0 instructions: 190000003 cycles: 47500148 heartbeat IPC: 4 cumulative IPC: 3.99999 (Simulation time: 0 hr 6 min 52 sec) 
Heartbeat CPU 0 instructions: 200000003 cycles: 50000148 heartbeat IPC: 4 cumulative IPC: 3.99999 (Simulation time: 0 hr 7 min 13 sec) 

Warmup complete CPU 0 instructions: 200000003 cycles: 50000148 (Simulation time: 0 hr 7 min 13 sec) 

Heartbeat CPU 0 instructions: 210000000 cycles: 58111443 heartbeat IPC: 1.23285 cumulative IPC: 1.23285 (Simulation time: 0 hr 7 min 31 sec) 
Heartbeat CPU 0 instructions: 220000000 cycles: 66214694 heartbeat IPC: 1.23407 cumulative IPC: 1.23346 (Simulation time: 0 hr 7 min 48 sec) 
Heartbeat CPU 0 instructions: 230000000 cycles: 74322615 heartbeat IPC: 1.23336 cumulative IPC: 1.23343 (Simulation time: 0 hr 8 min 6 sec) 
Heartbeat CPU 0 instructions: 240000001 cycles: 82420151 heartbeat IPC: 1.23494 cumulative IPC: 1.23381 (Simulation time: 0 hr 8 min 24 sec) 
Heartbeat CPU 0 instructions: 250000004 cycles: 90509577 heartbeat IPC: 1.23618 cumulative IPC: 1.23428 (Simulation time: 0 hr 8 min 41 sec) 
Heartbeat CPU 0 instructions: 260000001 cycles: 98567321 heartbeat IPC: 1.24104 cumulative IPC: 1.2354 (Simulation time: 0 hr 8 min 59 sec) 
Heartbeat CPU 0 instructions: 270000001 cycles: 106835327 heartbeat IPC: 1.20948 cumulative IPC: 1.23163 (Simulation time: 0 hr 9 min 17 sec) 
Heartbeat CPU 0 instructions: 280000000 cycles: 115068927 heartbeat IPC: 1.21454 cumulative IPC: 1.22947 (Simulation time: 0 hr 9 min 34 sec) 
Heartbeat CPU 0 instructions: 290000001 cycles: 123312782 heartbeat IPC: 1.21302 cumulative IPC: 1.22762 (Simulation time: 0 hr 9 min 51 sec) 
Heartbeat CPU 0 instructions: 300000002 cycles: 131536130 heartbeat IPC: 1.21605 cumulative IPC: 1.22645 (Simulation time: 0 hr 10 min 8 sec) 
Heartbeat CPU 0 instructions: 310000001 cycles: 139744328 heartbeat IPC: 1.21829 cumulative IPC: 1.22571 (Simulation time: 0 hr 10 min 25 sec) 
Heartbeat CPU 0 instructions: 320000002 cycles: 148021355 heartbeat IPC: 1.20816 cumulative IPC: 1.22422 (Simulation time: 0 hr 10 min 42 sec) 
Heartbeat CPU 0 instructions: 330000000 cycles: 156274611 heartbeat IPC: 1.21164 cumulative IPC: 1.22325 (Simulation time: 0 hr 10 min 59 sec) 
Heartbeat CPU 0 instructions: 340000000 cycles: 164577640 heartbeat IPC: 1.20438 cumulative IPC: 1.22188 (Simulation time: 0 hr 11 min 16 sec) 
Heartbeat CPU 0 instructions: 350000002 cycles: 172876551 heartbeat IPC: 1.20498 cumulative IPC: 1.22074 (Simulation time: 0 hr 11 min 33 sec) 
Heartbeat CPU 0 instructions: 360000004 cycles: 181072548 heartbeat IPC: 1.22011 cumulative IPC: 1.2207 (Simulation time: 0 hr 11 min 50 sec) 
Heartbeat CPU 0 instructions: 370000001 cycles: 189174306 heartbeat IPC: 1.2343 cumulative IPC: 1.22149 (Simulation time: 0 hr 12 min 8 sec) 
Heartbeat CPU 0 instructions: 380000000 cycles: 197274818 heartbeat IPC: 1.23449 cumulative IPC: 1.22221 (Simulation time: 0 hr 12 min 25 sec) 
Heartbeat CPU 0 instructions: 390000000 cycles: 205339672 heartbeat IPC: 1.23995 cumulative IPC: 1.22313 (Simulation time: 0 hr 12 min 43 sec) 
Heartbeat CPU 0 instructions: 400000002 cycles: 213442921 heartbeat IPC: 1.23407 cumulative IPC: 1.22367 (Simulation time: 0 hr 13 min 0 sec) 
Heartbeat CPU 0 instructions: 410000004 cycles: 221512714 heartbeat IPC: 1.23919 cumulative IPC: 1.2244 (Simulation time: 0 hr 13 min 17 sec) 
Heartbeat CPU 0 instructions: 420000002 cycles: 229612071 heartbeat IPC: 1.23467 cumulative IPC: 1.22486 (Simulation time: 0 hr 13 min 34 sec) 
Heartbeat CPU 0 instructions: 430000001 cycles: 237654441 heartbeat IPC: 1.24341 cumulative IPC: 1.22566 (Simulation time: 0 hr 13 min 52 sec) 
Heartbeat CPU 0 instructions: 440000004 cycles: 245731592 heartbeat IPC: 1.23806 cumulative IPC: 1.22617 (Simulation time: 0 hr 14 min 9 sec) 
Heartbeat CPU 0 instructions: 450000000 cycles: 253805811 heartbeat IPC: 1.23851 cumulative IPC: 1.22666 (Simulation time: 0 hr 14 min 26 sec) 
Heartbeat CPU 0 instructions: 460000000 cycles: 261902145 heartbeat IPC: 1.23513 cumulative IPC: 1.22698 (Simulation time: 0 hr 14 min 44 sec) 
Heartbeat CPU 0 instructions: 470000003 cycles: 269971419 heartbeat IPC: 1.23927 cumulative IPC: 1.22743 (Simulation time: 0 hr 15 min 1 sec) 
Heartbeat CPU 0 instructions: 480000004 cycles: 278058333 heartbeat IPC: 1.23657 cumulative IPC: 1.22776 (Simulation time: 0 hr 15 min 18 sec) 
Heartbeat CPU 0 instructions: 490000000 cycles: 286191331 heartbeat IPC: 1.22956 cumulative IPC: 1.22782 (Simulation time: 0 hr 15 min 35 sec) 
Heartbeat CPU 0 instructions: 500000001 cycles: 294438349 heartbeat IPC: 1.21256 cumulative IPC: 1.2273 (Simulation time: 0 hr 15 min 53 sec) 
Heartbeat CPU 0 instructions: 510000001 cycles: 302634096 heartbeat IPC: 1.22014 cumulative IPC: 1.22707 (Simulation time: 0 hr 16 min 10 sec) 
Heartbeat CPU 0 instructions: 520000001 cycles: 310819044 heartbeat IPC: 1.22175 cumulative IPC: 1.2269 (Simulation time: 0 hr 16 min 27 sec) 
Heartbeat CPU 0 instructions: 530000000 cycles: 318950057 heartbeat IPC: 1.22986 cumulative IPC: 1.22699 (Simulation time: 0 hr 16 min 44 sec) 
Heartbeat CPU 0 instructions: 540000002 cycles: 327153098 heartbeat IPC: 1.21906 cumulative IPC: 1.22676 (Simulation time: 0 hr 17 min 1 sec) 
Heartbeat CPU 0 instructions: 550000002 cycles: 335331332 heartbeat IPC: 1.22276 cumulative IPC: 1.22664 (Simulation time: 0 hr 17 min 18 sec) 
Heartbeat CPU 0 instructions: 560000002 cycles: 343471557 heartbeat IPC: 1.22847 cumulative IPC: 1.2267 (Simulation time: 0 hr 17 min 35 sec) 
Heartbeat CPU 0 instructions: 570000000 cycles: 351617345 heartbeat IPC: 1.22763 cumulative IPC: 1.22672 (Simulation time: 0 hr 17 min 53 sec) 
Heartbeat CPU 0 instructions: 580000002 cycles: 359759527 heartbeat IPC: 1.22817 cumulative IPC: 1.22676 (Simulation time: 0 hr 18 min 10 sec) 
Heartbeat CPU 0 instructions: 590000002 cycles: 367961499 heartbeat IPC: 1.21922 cumulative IPC: 1.22656 (Simulation time: 0 hr 18 min 27 sec) 
Heartbeat CPU 0 instructions: 600000002 cycles: 376057847 heartbeat IPC: 1.23512 cumulative IPC: 1.22678 (Simulation time: 0 hr 18 min 44 sec) 
Heartbeat CPU 0 instructions: 610000000 cycles: 384183988 heartbeat IPC: 1.2306 cumulative IPC: 1.22687 (Simulation time: 0 hr 19 min 2 sec) 
Heartbeat CPU 0 instructions: 620000000 cycles: 392296221 heartbeat IPC: 1.23271 cumulative IPC: 1.22701 (Simulation time: 0 hr 19 min 19 sec) 
Heartbeat CPU 0 instructions: 630000000 cycles: 400435761 heartbeat IPC: 1.22857 cumulative IPC: 1.22704 (Simulation time: 0 hr 19 min 37 sec) 
Heartbeat CPU 0 instructions: 640000002 cycles: 408575473 heartbeat IPC: 1.22854 cumulative IPC: 1.22708 (Simulation time: 0 hr 19 min 54 sec) 
Heartbeat CPU 0 instructions: 650000000 cycles: 416744257 heartbeat IPC: 1.22417 cumulative IPC: 1.22701 (Simulation time: 0 hr 20 min 11 sec) 
Heartbeat CPU 0 instructions: 660000000 cycles: 424938274 heartbeat IPC: 1.2204 cumulative IPC: 1.22687 (Simulation time: 0 hr 20 min 29 sec) 
Heartbeat CPU 0 instructions: 670000002 cycles: 433120011 heartbeat IPC: 1.22223 cumulative IPC: 1.22677 (Simulation time: 0 hr 20 min 46 sec) 
Heartbeat CPU 0 instructions: 680000003 cycles: 441333546 heartbeat IPC: 1.2175 cumulative IPC: 1.22658 (Simulation time: 0 hr 21 min 3 sec) 
Heartbeat CPU 0 instructions: 690000000 cycles: 449482729 heartbeat IPC: 1.22712 cumulative IPC: 1.22659 (Simulation time: 0 hr 21 min 20 sec) 
Heartbeat CPU 0 instructions: 700000003 cycles: 457624278 heartbeat IPC: 1.22827 cumulative IPC: 1.22662 (Simulation time: 0 hr 21 min 37 sec) 
Finished CPU 0 instructions: 500000000 cycles: 407624130 cumulative IPC: 1.22662 (Simulation time: 0 hr 21 min 37 sec) 

ChampSim completed all CPUs

Region of Interest Statistics

CPU 0 cumulative IPC: 1.22662 instructions: 500000000 cycles: 407624130
cpu0_L1I TOTAL     ACCESS:   25737741  HIT:   25736711  MISS:       1030
cpu0_L1I LOAD      ACCESS:   25737741  HIT:   25736711  MISS:       1030
cpu0_L1I RFO       ACCESS:          0  HIT:          0  MISS:          0
cpu0_L1I PREFETCH  ACCESS:          0  HIT:          0  MISS:          0
cpu0_L1I WRITEBACK ACCESS:          0  HIT:          0  MISS:          0
cpu0_L1I TRANSLATION ACCESS:          0  HIT:          0  MISS:          0
cpu0_L1I PREFETCH  REQUESTED:          0  ISSUED:          0  USEFUL:          0  USELESS:          0
cpu0_L1I AVERAGE MISS LATENCY: 93.065 cycles
cpu0_DTLB TOTAL     ACCESS:   78246410  HIT:   78246399  MISS:         11
cpu0_DTLB LOAD      ACCESS:   37753510  HIT:   37753501  MISS:          9
cpu0_DTLB RFO       ACCESS:   40492900  HIT:   40492898  MISS:          2
cpu0_DTLB PREFETCH  ACCESS:          0  HIT:          0  MISS:          0
cpu0_DTLB WRITEBACK ACCESS:          0  HIT:          0  MISS:          0
cpu0_DTLB TRANSLATION ACCESS:          0  HIT:          0  MISS:          0
cpu0_DTLB PREFETCH  REQUESTED:          0  ISSUED:          0  USEFUL:          0  USELESS:          0
cpu0_DTLB AVERAGE MISS LATENCY: 234.636 cycles
cpu0_ITLB TOTAL     ACCESS:   51374458  HIT:   51374434  MISS:         24
cpu0_ITLB LOAD      ACCESS:   51374458  HIT:   51374434  MISS:         24
cpu0_ITLB RFO       ACCESS:          0  HIT:          0  MISS:          0
cpu0_ITLB PREFETCH  ACCESS:          0  HIT:          0  MISS:          0
cpu0_ITLB WRITEBACK ACCESS:          0  HIT:          0  MISS:          0
cpu0_ITLB TRANSLATION ACCESS:          0  HIT:          0  MISS:          0
cpu0_ITLB PREFETCH  REQUESTED:          0  ISSUED:          0  USEFUL:          0  USELESS:          0
cpu0_ITLB AVERAGE MISS LATENCY: 217 cycles
cpu0_STLB TOTAL     ACCESS:         35  HIT:          0  MISS:         35
cpu0_STLB LOAD      ACCESS:         33  HIT:          0  MISS:         33
cpu0_STLB RFO       ACCESS:          2  HIT:          0  MISS:          2
cpu0_STLB PREFETCH  ACCESS:          0  HIT:          0  MISS:          0
cpu0_STLB WRITEBACK ACCESS:          0  HIT:          0  MISS:          0
cpu0_STLB TRANSLATION ACCESS:          0  HIT:          0  MISS:          0
cpu0_STLB PREFETCH  REQUESTED:          0  ISSUED:          0  USEFUL:          0  USELESS:          0
cpu0_STLB AVERAGE MISS LATENCY: 213.543 cycles
cpu0_L1D TOTAL     ACCESS:  146306305  HIT:  146306198  MISS:        107
cpu0_L1D LOAD      ACCESS:   68385183  HIT:   68385138  MISS:         45
cpu0_L1D RFO       ACCESS:   77921087  HIT:   77921026  MISS:         61
cpu0_L1D PREFETCH  ACCESS:          0  HIT:          0  MISS:          0
cpu0_L1D WRITEBACK ACCESS:          0  HIT:          0  MISS:          0
cpu0_L1D TRANSLATION ACCESS:         35  HIT:         34  MISS:          1
cpu0_L1D PREFETCH  REQUESTED:          0  ISSUED:          0  USEFUL:          0  USELESS:          0
cpu0_L1D AVERAGE MISS LATENCY: 187.944 cycles
cpu0_L2C TOTAL     ACCESS:       1137  HIT:          0  MISS:       1137
cpu0_L2C LOAD      ACCESS:       1075  HIT:          0  MISS:       1075
cpu0_L2C RFO       ACCESS:         61  HIT:          0  MISS:         61
cpu0_L2C PREFETCH  ACCESS:          0  HIT:          0  MISS:          0
cpu0_L2C WRITEBACK ACCESS:          0  HIT:          0  MISS:          0
cpu0_L2C TRANSLATION ACCESS:          1  HIT:          0  MISS:          1
cpu0_L2C PREFETCH  REQUESTED:          0  ISSUED:          0  USEFUL:          0  USELESS:          0
cpu0_L2C AVERAGE MISS LATENCY: 90.993 cycles
LLC TOTAL     ACCESS:       1669  HIT:        474  MISS:       1195
LLC LOAD      ACCESS:       1075  HIT:        404  MISS:        671
LLC RFO       ACCESS:         61  HIT:          7  MISS:         54
LLC PREFETCH  ACCESS:        532  HIT:         63  MISS:        469
LLC WRITEBACK ACCESS:          0  HIT:          0  MISS:          0
LLC TRANSLATION ACCESS:          1  HIT:          0  MISS:          1
LLC PREFETCH  REQUESTED:       1075  ISSUED:       1075  USEFUL:        620  USELESS:          0
LLC AVERAGE MISS LATENCY: 97.9674 cycles

DRAM Statistics
 CHANNEL 0
 RQ ROW_BUFFER_HIT:        620  ROW_BUFFER_MISS:        575
 DBUS AVG_CONGESTED_CYCLE:    3.83754
 WQ ROW_BUFFER_HIT:          0  ROW_BUFFER_MISS:          0  FULL:          0


CPU 0 Branch Prediction Accuracy: 75.4412% MPKI: 33.738 Average ROB Occupancy at Mispredict: 14.0328
Branch type MPKI
BRANCH_DIRECT_JUMP: 0.000174
BRANCH_INDIRECT: 0
BRANCH_CONDITIONAL: 33.7375
BRANCH_DIRECT_CALL: 0.000168
BRANCH_INDIRECT_CALL: 0
BRANCH_RETURN: 0.000168

