/home/caslab/workspace/sim/ChampSim/bin/champsim --warmup_instructions 200000000 --simulation_instructions 500000000/ /home/caslab/workspace/sim/traces/speccpu_by_champsim648.exchange2_s-353B.champsimtrace.xz
start simulation for 648.exchange2_s-353B.champsimtrace.xz

*** ChampSim Multicore Out-of-Order Simulator ***

Warmup Instructions: 200000000
Simulation Instructions: 500000000
Number of CPUs: 1
Off-chip DRAM Size: 4 GiB Channels: 1 Width: 64-bit Data Rate: 3200 MT/s

VirtualMemory physical capacity: 8588881920 num_ppages: 2096895
VirtualMemory page size: 4096 log2_page_size: 12

CPU 0 runs /home/caslab/workspace/sim/traces/speccpu_by_champsim/648.exchange2_s-353B.champsimtrace.xz
CPU 0 Bimodal branch predictor
Basic BTB sets: 1024 ways: 8 indirect buffer size: 4096 RAS size: 64
LLC next line prefetcher
WARNING: The extended signature CACHE::prefetch_line(ip, base_addr, pf_addr, fill_this_level, prefetch_metadata) is deprecated.
WARNING: Use CACHE::prefetch_line(pf_addr, fill_this_level, prefetch_metadata) instead.
Heartbeat CPU 0 instructions: 10000000 cycles: 2500096 heartbeat IPC: 3.99985 cumulative IPC: 3.99985 (Simulation time: 0 hr 0 min 21 sec) 
Heartbeat CPU 0 instructions: 20000000 cycles: 5000096 heartbeat IPC: 4 cumulative IPC: 3.99992 (Simulation time: 0 hr 0 min 41 sec) 
Heartbeat CPU 0 instructions: 30000000 cycles: 7500096 heartbeat IPC: 4 cumulative IPC: 3.99995 (Simulation time: 0 hr 1 min 2 sec) 
Heartbeat CPU 0 instructions: 40000000 cycles: 10000096 heartbeat IPC: 4 cumulative IPC: 3.99996 (Simulation time: 0 hr 1 min 23 sec) 
Heartbeat CPU 0 instructions: 50000000 cycles: 12500096 heartbeat IPC: 4 cumulative IPC: 3.99997 (Simulation time: 0 hr 1 min 45 sec) 
Heartbeat CPU 0 instructions: 60000000 cycles: 15000096 heartbeat IPC: 4 cumulative IPC: 3.99997 (Simulation time: 0 hr 2 min 6 sec) 
Heartbeat CPU 0 instructions: 70000000 cycles: 17500096 heartbeat IPC: 4 cumulative IPC: 3.99998 (Simulation time: 0 hr 2 min 27 sec) 
Heartbeat CPU 0 instructions: 80000001 cycles: 20002557 heartbeat IPC: 3.99607 cumulative IPC: 3.99949 (Simulation time: 0 hr 2 min 48 sec) 
Heartbeat CPU 0 instructions: 90000001 cycles: 22502557 heartbeat IPC: 4 cumulative IPC: 3.99955 (Simulation time: 0 hr 3 min 9 sec) 
Heartbeat CPU 0 instructions: 100000001 cycles: 25002557 heartbeat IPC: 4 cumulative IPC: 3.99959 (Simulation time: 0 hr 3 min 30 sec) 
Heartbeat CPU 0 instructions: 110000001 cycles: 27502557 heartbeat IPC: 4 cumulative IPC: 3.99963 (Simulation time: 0 hr 3 min 51 sec) 
Heartbeat CPU 0 instructions: 120000001 cycles: 30002557 heartbeat IPC: 4 cumulative IPC: 3.99966 (Simulation time: 0 hr 4 min 12 sec) 
Heartbeat CPU 0 instructions: 130000001 cycles: 32502557 heartbeat IPC: 4 cumulative IPC: 3.99969 (Simulation time: 0 hr 4 min 33 sec) 
Heartbeat CPU 0 instructions: 140000001 cycles: 35002557 heartbeat IPC: 4 cumulative IPC: 3.99971 (Simulation time: 0 hr 4 min 54 sec) 
Heartbeat CPU 0 instructions: 150000001 cycles: 37502557 heartbeat IPC: 4 cumulative IPC: 3.99973 (Simulation time: 0 hr 5 min 15 sec) 
Heartbeat CPU 0 instructions: 160000001 cycles: 40002557 heartbeat IPC: 4 cumulative IPC: 3.99974 (Simulation time: 0 hr 5 min 35 sec) 
Heartbeat CPU 0 instructions: 170000003 cycles: 42505565 heartbeat IPC: 3.99519 cumulative IPC: 3.99948 (Simulation time: 0 hr 5 min 56 sec) 
Heartbeat CPU 0 instructions: 180000003 cycles: 45005565 heartbeat IPC: 4 cumulative IPC: 3.99951 (Simulation time: 0 hr 6 min 17 sec) 
Heartbeat CPU 0 instructions: 190000003 cycles: 47505565 heartbeat IPC: 4 cumulative IPC: 3.99953 (Simulation time: 0 hr 6 min 38 sec) 
Heartbeat CPU 0 instructions: 200000002 cycles: 50012060 heartbeat IPC: 3.98963 cumulative IPC: 3.99904 (Simulation time: 0 hr 6 min 58 sec) 

Warmup complete CPU 0 instructions: 200000002 cycles: 50012060 (Simulation time: 0 hr 6 min 58 sec) 

Heartbeat CPU 0 instructions: 210000003 cycles: 57902476 heartbeat IPC: 1.26736 cumulative IPC: 1.26736 (Simulation time: 0 hr 7 min 16 sec) 
Heartbeat CPU 0 instructions: 220000003 cycles: 65877608 heartbeat IPC: 1.2539 cumulative IPC: 1.26059 (Simulation time: 0 hr 7 min 33 sec) 
Heartbeat CPU 0 instructions: 230000001 cycles: 73829520 heartbeat IPC: 1.25756 cumulative IPC: 1.25958 (Simulation time: 0 hr 7 min 51 sec) 
Heartbeat CPU 0 instructions: 240000001 cycles: 81922164 heartbeat IPC: 1.23569 cumulative IPC: 1.25352 (Simulation time: 0 hr 8 min 8 sec) 
Heartbeat CPU 0 instructions: 250000002 cycles: 89887094 heartbeat IPC: 1.2555 cumulative IPC: 1.25392 (Simulation time: 0 hr 8 min 25 sec) 
Heartbeat CPU 0 instructions: 260000004 cycles: 97861341 heartbeat IPC: 1.25404 cumulative IPC: 1.25394 (Simulation time: 0 hr 8 min 42 sec) 
Heartbeat CPU 0 instructions: 270000001 cycles: 105814311 heartbeat IPC: 1.25739 cumulative IPC: 1.25443 (Simulation time: 0 hr 8 min 58 sec) 
Heartbeat CPU 0 instructions: 280000002 cycles: 113783951 heartbeat IPC: 1.25476 cumulative IPC: 1.25447 (Simulation time: 0 hr 9 min 15 sec) 
Heartbeat CPU 0 instructions: 290000000 cycles: 121808949 heartbeat IPC: 1.24611 cumulative IPC: 1.25354 (Simulation time: 0 hr 9 min 32 sec) 
Heartbeat CPU 0 instructions: 300000001 cycles: 129875252 heartbeat IPC: 1.23973 cumulative IPC: 1.25214 (Simulation time: 0 hr 9 min 49 sec) 
Heartbeat CPU 0 instructions: 310000000 cycles: 137917506 heartbeat IPC: 1.24343 cumulative IPC: 1.25134 (Simulation time: 0 hr 10 min 6 sec) 
Heartbeat CPU 0 instructions: 320000002 cycles: 145962089 heartbeat IPC: 1.24307 cumulative IPC: 1.25065 (Simulation time: 0 hr 10 min 23 sec) 
Heartbeat CPU 0 instructions: 330000002 cycles: 154064904 heartbeat IPC: 1.23414 cumulative IPC: 1.24937 (Simulation time: 0 hr 10 min 40 sec) 
Heartbeat CPU 0 instructions: 340000000 cycles: 162102241 heartbeat IPC: 1.24419 cumulative IPC: 1.24899 (Simulation time: 0 hr 10 min 57 sec) 
Heartbeat CPU 0 instructions: 350000000 cycles: 170064597 heartbeat IPC: 1.25591 cumulative IPC: 1.24945 (Simulation time: 0 hr 11 min 14 sec) 
Heartbeat CPU 0 instructions: 360000002 cycles: 178144742 heartbeat IPC: 1.2376 cumulative IPC: 1.24871 (Simulation time: 0 hr 11 min 31 sec) 
Heartbeat CPU 0 instructions: 370000004 cycles: 186151013 heartbeat IPC: 1.24902 cumulative IPC: 1.24872 (Simulation time: 0 hr 11 min 47 sec) 
Heartbeat CPU 0 instructions: 380000001 cycles: 194133626 heartbeat IPC: 1.25272 cumulative IPC: 1.24895 (Simulation time: 0 hr 12 min 4 sec) 
Heartbeat CPU 0 instructions: 390000001 cycles: 202089652 heartbeat IPC: 1.25691 cumulative IPC: 1.24936 (Simulation time: 0 hr 12 min 21 sec) 
Heartbeat CPU 0 instructions: 400000003 cycles: 210054800 heartbeat IPC: 1.25547 cumulative IPC: 1.24967 (Simulation time: 0 hr 12 min 38 sec) 
Heartbeat CPU 0 instructions: 410000002 cycles: 218063061 heartbeat IPC: 1.24871 cumulative IPC: 1.24962 (Simulation time: 0 hr 12 min 55 sec) 
Heartbeat CPU 0 instructions: 420000002 cycles: 226159573 heartbeat IPC: 1.2351 cumulative IPC: 1.24895 (Simulation time: 0 hr 13 min 12 sec) 
Heartbeat CPU 0 instructions: 430000004 cycles: 234226721 heartbeat IPC: 1.2396 cumulative IPC: 1.24854 (Simulation time: 0 hr 13 min 29 sec) 
Heartbeat CPU 0 instructions: 440000002 cycles: 242265858 heartbeat IPC: 1.24391 cumulative IPC: 1.24835 (Simulation time: 0 hr 13 min 46 sec) 
Heartbeat CPU 0 instructions: 450000001 cycles: 250367210 heartbeat IPC: 1.23436 cumulative IPC: 1.24778 (Simulation time: 0 hr 14 min 2 sec) 
Heartbeat CPU 0 instructions: 460000002 cycles: 258441107 heartbeat IPC: 1.23856 cumulative IPC: 1.24743 (Simulation time: 0 hr 14 min 19 sec) 
Heartbeat CPU 0 instructions: 470000002 cycles: 266426660 heartbeat IPC: 1.25226 cumulative IPC: 1.24761 (Simulation time: 0 hr 14 min 36 sec) 
Heartbeat CPU 0 instructions: 480000000 cycles: 274526584 heartbeat IPC: 1.23458 cumulative IPC: 1.24714 (Simulation time: 0 hr 14 min 53 sec) 
Heartbeat CPU 0 instructions: 490000004 cycles: 282473914 heartbeat IPC: 1.25828 cumulative IPC: 1.24752 (Simulation time: 0 hr 15 min 10 sec) 
Heartbeat CPU 0 instructions: 500000004 cycles: 290454341 heartbeat IPC: 1.25307 cumulative IPC: 1.2477 (Simulation time: 0 hr 15 min 27 sec) 
Heartbeat CPU 0 instructions: 510000000 cycles: 298411136 heartbeat IPC: 1.25679 cumulative IPC: 1.24799 (Simulation time: 0 hr 15 min 43 sec) 
Heartbeat CPU 0 instructions: 520000000 cycles: 306378282 heartbeat IPC: 1.25515 cumulative IPC: 1.24821 (Simulation time: 0 hr 16 min 0 sec) 
Heartbeat CPU 0 instructions: 530000003 cycles: 314374493 heartbeat IPC: 1.25059 cumulative IPC: 1.24829 (Simulation time: 0 hr 16 min 17 sec) 
Heartbeat CPU 0 instructions: 540000002 cycles: 322651395 heartbeat IPC: 1.20818 cumulative IPC: 1.24707 (Simulation time: 0 hr 16 min 35 sec) 
Heartbeat CPU 0 instructions: 550000000 cycles: 330993224 heartbeat IPC: 1.19878 cumulative IPC: 1.24564 (Simulation time: 0 hr 16 min 53 sec) 
Heartbeat CPU 0 instructions: 560000001 cycles: 339282945 heartbeat IPC: 1.20631 cumulative IPC: 1.24451 (Simulation time: 0 hr 17 min 10 sec) 
Heartbeat CPU 0 instructions: 570000000 cycles: 347508182 heartbeat IPC: 1.21577 cumulative IPC: 1.24371 (Simulation time: 0 hr 17 min 27 sec) 
Heartbeat CPU 0 instructions: 580000001 cycles: 355814696 heartbeat IPC: 1.20387 cumulative IPC: 1.24263 (Simulation time: 0 hr 17 min 44 sec) 
Heartbeat CPU 0 instructions: 590000002 cycles: 364052686 heartbeat IPC: 1.21389 cumulative IPC: 1.24188 (Simulation time: 0 hr 18 min 1 sec) 
Heartbeat CPU 0 instructions: 600000000 cycles: 372426670 heartbeat IPC: 1.19417 cumulative IPC: 1.24064 (Simulation time: 0 hr 18 min 18 sec) 
Heartbeat CPU 0 instructions: 610000001 cycles: 380685773 heartbeat IPC: 1.21079 cumulative IPC: 1.23989 (Simulation time: 0 hr 18 min 36 sec) 
Heartbeat CPU 0 instructions: 620000001 cycles: 388919724 heartbeat IPC: 1.21448 cumulative IPC: 1.23928 (Simulation time: 0 hr 18 min 53 sec) 
Heartbeat CPU 0 instructions: 630000000 cycles: 396868429 heartbeat IPC: 1.25807 cumulative IPC: 1.23971 (Simulation time: 0 hr 19 min 10 sec) 
Heartbeat CPU 0 instructions: 640000002 cycles: 404938147 heartbeat IPC: 1.2392 cumulative IPC: 1.23969 (Simulation time: 0 hr 19 min 26 sec) 
Heartbeat CPU 0 instructions: 650000003 cycles: 412876820 heartbeat IPC: 1.25966 cumulative IPC: 1.24013 (Simulation time: 0 hr 19 min 44 sec) 
Heartbeat CPU 0 instructions: 660000004 cycles: 420786950 heartbeat IPC: 1.2642 cumulative IPC: 1.24064 (Simulation time: 0 hr 20 min 1 sec) 
Heartbeat CPU 0 instructions: 670000001 cycles: 428711505 heartbeat IPC: 1.2619 cumulative IPC: 1.24109 (Simulation time: 0 hr 20 min 19 sec) 
Heartbeat CPU 0 instructions: 680000002 cycles: 436647228 heartbeat IPC: 1.26012 cumulative IPC: 1.24148 (Simulation time: 0 hr 20 min 36 sec) 
Heartbeat CPU 0 instructions: 690000001 cycles: 444594071 heartbeat IPC: 1.25836 cumulative IPC: 1.24182 (Simulation time: 0 hr 20 min 52 sec) 
Heartbeat CPU 0 instructions: 700000001 cycles: 452559397 heartbeat IPC: 1.25544 cumulative IPC: 1.24209 (Simulation time: 0 hr 21 min 9 sec) 
Finished CPU 0 instructions: 500000004 cycles: 402547338 cumulative IPC: 1.24209 (Simulation time: 0 hr 21 min 9 sec) 

ChampSim completed all CPUs

Region of Interest Statistics

CPU 0 cumulative IPC: 1.24209 instructions: 500000004 cycles: 402547338
cpu0_L1I TOTAL     ACCESS:   23065296  HIT:   23065285  MISS:         11
cpu0_L1I LOAD      ACCESS:   23065296  HIT:   23065285  MISS:         11
cpu0_L1I RFO       ACCESS:          0  HIT:          0  MISS:          0
cpu0_L1I PREFETCH  ACCESS:          0  HIT:          0  MISS:          0
cpu0_L1I WRITEBACK ACCESS:          0  HIT:          0  MISS:          0
cpu0_L1I TRANSLATION ACCESS:          0  HIT:          0  MISS:          0
cpu0_L1I PREFETCH  REQUESTED:          0  ISSUED:          0  USEFUL:          0  USELESS:          0
cpu0_L1I AVERAGE MISS LATENCY: 105.364 cycles
cpu0_DTLB TOTAL     ACCESS:   80239328  HIT:   80239326  MISS:          2
cpu0_DTLB LOAD      ACCESS:   38016004  HIT:   38016002  MISS:          2
cpu0_DTLB RFO       ACCESS:   42223324  HIT:   42223324  MISS:          0
cpu0_DTLB PREFETCH  ACCESS:          0  HIT:          0  MISS:          0
cpu0_DTLB WRITEBACK ACCESS:          0  HIT:          0  MISS:          0
cpu0_DTLB TRANSLATION ACCESS:          0  HIT:          0  MISS:          0
cpu0_DTLB PREFETCH  REQUESTED:          0  ISSUED:          0  USEFUL:          0  USELESS:          0
cpu0_DTLB AVERAGE MISS LATENCY: 217 cycles
cpu0_ITLB TOTAL     ACCESS:   52153778  HIT:   52153778  MISS:          0
cpu0_ITLB LOAD      ACCESS:   52153778  HIT:   52153778  MISS:          0
cpu0_ITLB RFO       ACCESS:          0  HIT:          0  MISS:          0
cpu0_ITLB PREFETCH  ACCESS:          0  HIT:          0  MISS:          0
cpu0_ITLB WRITEBACK ACCESS:          0  HIT:          0  MISS:          0
cpu0_ITLB TRANSLATION ACCESS:          0  HIT:          0  MISS:          0
cpu0_ITLB PREFETCH  REQUESTED:          0  ISSUED:          0  USEFUL:          0  USELESS:          0
cpu0_ITLB AVERAGE MISS LATENCY: -nan cycles
cpu0_STLB TOTAL     ACCESS:          2  HIT:          0  MISS:          2
cpu0_STLB LOAD      ACCESS:          2  HIT:          0  MISS:          2
cpu0_STLB RFO       ACCESS:          0  HIT:          0  MISS:          0
cpu0_STLB PREFETCH  ACCESS:          0  HIT:          0  MISS:          0
cpu0_STLB WRITEBACK ACCESS:          0  HIT:          0  MISS:          0
cpu0_STLB TRANSLATION ACCESS:          0  HIT:          0  MISS:          0
cpu0_STLB PREFETCH  REQUESTED:          0  ISSUED:          0  USEFUL:          0  USELESS:          0
cpu0_STLB AVERAGE MISS LATENCY: 208 cycles
cpu0_L1D TOTAL     ACCESS:  140698668  HIT:  140698658  MISS:         10
cpu0_L1D LOAD      ACCESS:   65363891  HIT:   65363881  MISS:         10
cpu0_L1D RFO       ACCESS:   75334775  HIT:   75334775  MISS:          0
cpu0_L1D PREFETCH  ACCESS:          0  HIT:          0  MISS:          0
cpu0_L1D WRITEBACK ACCESS:          0  HIT:          0  MISS:          0
cpu0_L1D TRANSLATION ACCESS:          2  HIT:          2  MISS:          0
cpu0_L1D PREFETCH  REQUESTED:          0  ISSUED:          0  USEFUL:          0  USELESS:          0
cpu0_L1D AVERAGE MISS LATENCY: 168.3 cycles
cpu0_L2C TOTAL     ACCESS:         21  HIT:          0  MISS:         21
cpu0_L2C LOAD      ACCESS:         21  HIT:          0  MISS:         21
cpu0_L2C RFO       ACCESS:          0  HIT:          0  MISS:          0
cpu0_L2C PREFETCH  ACCESS:          0  HIT:          0  MISS:          0
cpu0_L2C WRITEBACK ACCESS:          0  HIT:          0  MISS:          0
cpu0_L2C TRANSLATION ACCESS:          0  HIT:          0  MISS:          0
cpu0_L2C PREFETCH  REQUESTED:          0  ISSUED:          0  USEFUL:          0  USELESS:          0
cpu0_L2C AVERAGE MISS LATENCY: 124.333 cycles
LLC TOTAL     ACCESS:         38  HIT:          9  MISS:         29
LLC LOAD      ACCESS:         21  HIT:          6  MISS:         15
LLC RFO       ACCESS:          0  HIT:          0  MISS:          0
LLC PREFETCH  ACCESS:         17  HIT:          3  MISS:         14
LLC WRITEBACK ACCESS:          0  HIT:          0  MISS:          0
LLC TRANSLATION ACCESS:          0  HIT:          0  MISS:          0
LLC PREFETCH  REQUESTED:         21  ISSUED:         21  USEFUL:          9  USELESS:          0
LLC AVERAGE MISS LATENCY: 143.207 cycles

DRAM Statistics
 CHANNEL 0
 RQ ROW_BUFFER_HIT:          2  ROW_BUFFER_MISS:         27
 DBUS AVG_CONGESTED_CYCLE: -
 WQ ROW_BUFFER_HIT:          0  ROW_BUFFER_MISS:          0  FULL:          0


CPU 0 Branch Prediction Accuracy: 75.5477% MPKI: 34.0856 Average ROB Occupancy at Mispredict: 13.7422
Branch type MPKI
BRANCH_DIRECT_JUMP: 6e-06
BRANCH_INDIRECT: 0
BRANCH_CONDITIONAL: 34.0856
BRANCH_DIRECT_CALL: 0
BRANCH_INDIRECT_CALL: 0
BRANCH_RETURN: 0

