/home/caslab/workspace/sim/ChampSim/bin/champsim --warmup_instructions 200000000 --simulation_instructions 500000000/ /home/caslab/workspace/sim/traces/speccpu_by_champsim648.exchange2_s-210B.champsimtrace.xz
start simulation for 648.exchange2_s-210B.champsimtrace.xz

*** ChampSim Multicore Out-of-Order Simulator ***

Warmup Instructions: 200000000
Simulation Instructions: 500000000
Number of CPUs: 1
Off-chip DRAM Size: 4 GiB Channels: 1 Width: 64-bit Data Rate: 3200 MT/s

VirtualMemory physical capacity: 8588881920 num_ppages: 2096895
VirtualMemory page size: 4096 log2_page_size: 12

CPU 0 runs /home/caslab/workspace/sim/traces/speccpu_by_champsim/648.exchange2_s-210B.champsimtrace.xz
CPU 0 Bimodal branch predictor
Basic BTB sets: 1024 ways: 8 indirect buffer size: 4096 RAS size: 64
LLC next line prefetcher
WARNING: The extended signature CACHE::prefetch_line(ip, base_addr, pf_addr, fill_this_level, prefetch_metadata) is deprecated.
WARNING: Use CACHE::prefetch_line(pf_addr, fill_this_level, prefetch_metadata) instead.
Heartbeat CPU 0 instructions: 10000001 cycles: 2500226 heartbeat IPC: 3.99964 cumulative IPC: 3.99964 (Simulation time: 0 hr 0 min 21 sec) 
Heartbeat CPU 0 instructions: 20000001 cycles: 5000226 heartbeat IPC: 4 cumulative IPC: 3.99982 (Simulation time: 0 hr 0 min 42 sec) 
Heartbeat CPU 0 instructions: 30000001 cycles: 7500226 heartbeat IPC: 4 cumulative IPC: 3.99988 (Simulation time: 0 hr 1 min 3 sec) 
Heartbeat CPU 0 instructions: 40000001 cycles: 10000226 heartbeat IPC: 4 cumulative IPC: 3.99991 (Simulation time: 0 hr 1 min 24 sec) 
Heartbeat CPU 0 instructions: 50000001 cycles: 12500226 heartbeat IPC: 4 cumulative IPC: 3.99993 (Simulation time: 0 hr 1 min 45 sec) 
Heartbeat CPU 0 instructions: 60000001 cycles: 15000226 heartbeat IPC: 4 cumulative IPC: 3.99994 (Simulation time: 0 hr 2 min 7 sec) 
Heartbeat CPU 0 instructions: 70000001 cycles: 17500226 heartbeat IPC: 4 cumulative IPC: 3.99995 (Simulation time: 0 hr 2 min 28 sec) 
Heartbeat CPU 0 instructions: 80000001 cycles: 20000226 heartbeat IPC: 4 cumulative IPC: 3.99995 (Simulation time: 0 hr 2 min 49 sec) 
Heartbeat CPU 0 instructions: 90000001 cycles: 22500226 heartbeat IPC: 4 cumulative IPC: 3.99996 (Simulation time: 0 hr 3 min 11 sec) 
Heartbeat CPU 0 instructions: 100000001 cycles: 25000226 heartbeat IPC: 4 cumulative IPC: 3.99996 (Simulation time: 0 hr 3 min 32 sec) 
Heartbeat CPU 0 instructions: 110000001 cycles: 27500226 heartbeat IPC: 4 cumulative IPC: 3.99997 (Simulation time: 0 hr 3 min 53 sec) 
Heartbeat CPU 0 instructions: 120000001 cycles: 30000226 heartbeat IPC: 4 cumulative IPC: 3.99997 (Simulation time: 0 hr 4 min 14 sec) 
Heartbeat CPU 0 instructions: 130000001 cycles: 32500226 heartbeat IPC: 4 cumulative IPC: 3.99997 (Simulation time: 0 hr 4 min 35 sec) 
Heartbeat CPU 0 instructions: 140000001 cycles: 35000226 heartbeat IPC: 4 cumulative IPC: 3.99997 (Simulation time: 0 hr 4 min 56 sec) 
Heartbeat CPU 0 instructions: 150000001 cycles: 37500226 heartbeat IPC: 4 cumulative IPC: 3.99998 (Simulation time: 0 hr 5 min 17 sec) 
Heartbeat CPU 0 instructions: 160000001 cycles: 40000226 heartbeat IPC: 4 cumulative IPC: 3.99998 (Simulation time: 0 hr 5 min 39 sec) 
Heartbeat CPU 0 instructions: 170000001 cycles: 42500226 heartbeat IPC: 4 cumulative IPC: 3.99998 (Simulation time: 0 hr 6 min 0 sec) 
Heartbeat CPU 0 instructions: 180000001 cycles: 45000226 heartbeat IPC: 4 cumulative IPC: 3.99998 (Simulation time: 0 hr 6 min 21 sec) 
Heartbeat CPU 0 instructions: 190000001 cycles: 47500226 heartbeat IPC: 4 cumulative IPC: 3.99998 (Simulation time: 0 hr 6 min 42 sec) 
Heartbeat CPU 0 instructions: 200000001 cycles: 50000226 heartbeat IPC: 4 cumulative IPC: 3.99998 (Simulation time: 0 hr 7 min 3 sec) 

Warmup complete CPU 0 instructions: 200000001 cycles: 50000226 (Simulation time: 0 hr 7 min 3 sec) 

Heartbeat CPU 0 instructions: 210000004 cycles: 58417100 heartbeat IPC: 1.18809 cumulative IPC: 1.18809 (Simulation time: 0 hr 7 min 21 sec) 
Heartbeat CPU 0 instructions: 220000004 cycles: 66864628 heartbeat IPC: 1.18378 cumulative IPC: 1.18593 (Simulation time: 0 hr 7 min 38 sec) 
Heartbeat CPU 0 instructions: 230000004 cycles: 75143881 heartbeat IPC: 1.20784 cumulative IPC: 1.19314 (Simulation time: 0 hr 7 min 55 sec) 
Heartbeat CPU 0 instructions: 240000002 cycles: 83379603 heartbeat IPC: 1.21422 cumulative IPC: 1.19834 (Simulation time: 0 hr 8 min 13 sec) 
Heartbeat CPU 0 instructions: 250000004 cycles: 91719908 heartbeat IPC: 1.199 cumulative IPC: 1.19848 (Simulation time: 0 hr 8 min 30 sec) 
Heartbeat CPU 0 instructions: 260000001 cycles: 99958218 heartbeat IPC: 1.21384 cumulative IPC: 1.20101 (Simulation time: 0 hr 8 min 47 sec) 
Heartbeat CPU 0 instructions: 270000001 cycles: 108354703 heartbeat IPC: 1.19097 cumulative IPC: 1.19957 (Simulation time: 0 hr 9 min 5 sec) 
Heartbeat CPU 0 instructions: 280000000 cycles: 116865646 heartbeat IPC: 1.17496 cumulative IPC: 1.19643 (Simulation time: 0 hr 9 min 22 sec) 
Heartbeat CPU 0 instructions: 290000002 cycles: 125243924 heartbeat IPC: 1.19356 cumulative IPC: 1.19611 (Simulation time: 0 hr 9 min 40 sec) 
Heartbeat CPU 0 instructions: 300000000 cycles: 133732305 heartbeat IPC: 1.17808 cumulative IPC: 1.19429 (Simulation time: 0 hr 9 min 57 sec) 
Heartbeat CPU 0 instructions: 310000001 cycles: 142036530 heartbeat IPC: 1.20421 cumulative IPC: 1.19518 (Simulation time: 0 hr 10 min 15 sec) 
Heartbeat CPU 0 instructions: 320000001 cycles: 150431190 heartbeat IPC: 1.19123 cumulative IPC: 1.19485 (Simulation time: 0 hr 10 min 32 sec) 
Heartbeat CPU 0 instructions: 330000004 cycles: 158744816 heartbeat IPC: 1.20284 cumulative IPC: 1.19546 (Simulation time: 0 hr 10 min 50 sec) 
Heartbeat CPU 0 instructions: 340000000 cycles: 167152506 heartbeat IPC: 1.18939 cumulative IPC: 1.19503 (Simulation time: 0 hr 11 min 7 sec) 
Heartbeat CPU 0 instructions: 350000003 cycles: 175408616 heartbeat IPC: 1.21122 cumulative IPC: 1.19609 (Simulation time: 0 hr 11 min 25 sec) 
Heartbeat CPU 0 instructions: 360000000 cycles: 183617911 heartbeat IPC: 1.21813 cumulative IPC: 1.19745 (Simulation time: 0 hr 11 min 42 sec) 
Heartbeat CPU 0 instructions: 370000001 cycles: 191965683 heartbeat IPC: 1.19792 cumulative IPC: 1.19747 (Simulation time: 0 hr 12 min 0 sec) 
Heartbeat CPU 0 instructions: 380000001 cycles: 200244404 heartbeat IPC: 1.20792 cumulative IPC: 1.19805 (Simulation time: 0 hr 12 min 17 sec) 
Heartbeat CPU 0 instructions: 390000001 cycles: 208640452 heartbeat IPC: 1.19104 cumulative IPC: 1.19768 (Simulation time: 0 hr 12 min 35 sec) 
Heartbeat CPU 0 instructions: 400000001 cycles: 217040712 heartbeat IPC: 1.19044 cumulative IPC: 1.19731 (Simulation time: 0 hr 12 min 52 sec) 
Heartbeat CPU 0 instructions: 410000003 cycles: 225442948 heartbeat IPC: 1.19016 cumulative IPC: 1.19697 (Simulation time: 0 hr 13 min 10 sec) 
Heartbeat CPU 0 instructions: 420000004 cycles: 233682735 heartbeat IPC: 1.21362 cumulative IPC: 1.19772 (Simulation time: 0 hr 13 min 27 sec) 
Heartbeat CPU 0 instructions: 430000003 cycles: 241898916 heartbeat IPC: 1.21711 cumulative IPC: 1.19855 (Simulation time: 0 hr 13 min 45 sec) 
Heartbeat CPU 0 instructions: 440000002 cycles: 250215128 heartbeat IPC: 1.20247 cumulative IPC: 1.19871 (Simulation time: 0 hr 14 min 2 sec) 
Heartbeat CPU 0 instructions: 450000002 cycles: 258637148 heartbeat IPC: 1.18736 cumulative IPC: 1.19825 (Simulation time: 0 hr 14 min 19 sec) 
Heartbeat CPU 0 instructions: 460000000 cycles: 267025874 heartbeat IPC: 1.19208 cumulative IPC: 1.19802 (Simulation time: 0 hr 14 min 37 sec) 
Heartbeat CPU 0 instructions: 470000000 cycles: 275331704 heartbeat IPC: 1.20397 cumulative IPC: 1.19823 (Simulation time: 0 hr 14 min 55 sec) 
Heartbeat CPU 0 instructions: 480000003 cycles: 283662231 heartbeat IPC: 1.2004 cumulative IPC: 1.19831 (Simulation time: 0 hr 15 min 12 sec) 
Heartbeat CPU 0 instructions: 490000003 cycles: 291744112 heartbeat IPC: 1.23734 cumulative IPC: 1.19962 (Simulation time: 0 hr 15 min 30 sec) 
Heartbeat CPU 0 instructions: 500000000 cycles: 299957528 heartbeat IPC: 1.21752 cumulative IPC: 1.2002 (Simulation time: 0 hr 15 min 47 sec) 
Heartbeat CPU 0 instructions: 510000001 cycles: 308140602 heartbeat IPC: 1.22203 cumulative IPC: 1.2009 (Simulation time: 0 hr 16 min 4 sec) 
Heartbeat CPU 0 instructions: 520000001 cycles: 316379291 heartbeat IPC: 1.21379 cumulative IPC: 1.2013 (Simulation time: 0 hr 16 min 21 sec) 
Heartbeat CPU 0 instructions: 530000004 cycles: 324765889 heartbeat IPC: 1.19238 cumulative IPC: 1.20102 (Simulation time: 0 hr 16 min 38 sec) 
Heartbeat CPU 0 instructions: 540000004 cycles: 333152025 heartbeat IPC: 1.19244 cumulative IPC: 1.20077 (Simulation time: 0 hr 16 min 56 sec) 
Heartbeat CPU 0 instructions: 550000000 cycles: 341423654 heartbeat IPC: 1.20895 cumulative IPC: 1.201 (Simulation time: 0 hr 17 min 13 sec) 
Heartbeat CPU 0 instructions: 560000004 cycles: 349554402 heartbeat IPC: 1.2299 cumulative IPC: 1.20179 (Simulation time: 0 hr 17 min 30 sec) 
Heartbeat CPU 0 instructions: 570000001 cycles: 357825715 heartbeat IPC: 1.209 cumulative IPC: 1.20198 (Simulation time: 0 hr 17 min 48 sec) 
Heartbeat CPU 0 instructions: 580000003 cycles: 366044418 heartbeat IPC: 1.21674 cumulative IPC: 1.20236 (Simulation time: 0 hr 18 min 5 sec) 
Heartbeat CPU 0 instructions: 590000001 cycles: 374455460 heartbeat IPC: 1.18891 cumulative IPC: 1.20201 (Simulation time: 0 hr 18 min 23 sec) 
Heartbeat CPU 0 instructions: 600000003 cycles: 382932876 heartbeat IPC: 1.17961 cumulative IPC: 1.20144 (Simulation time: 0 hr 18 min 40 sec) 
Heartbeat CPU 0 instructions: 610000004 cycles: 391307901 heartbeat IPC: 1.19403 cumulative IPC: 1.20126 (Simulation time: 0 hr 18 min 58 sec) 
Heartbeat CPU 0 instructions: 620000000 cycles: 399557175 heartbeat IPC: 1.21223 cumulative IPC: 1.20152 (Simulation time: 0 hr 19 min 15 sec) 
Heartbeat CPU 0 instructions: 630000002 cycles: 407822037 heartbeat IPC: 1.20994 cumulative IPC: 1.20172 (Simulation time: 0 hr 19 min 33 sec) 
Heartbeat CPU 0 instructions: 640000001 cycles: 416164632 heartbeat IPC: 1.19867 cumulative IPC: 1.20165 (Simulation time: 0 hr 19 min 50 sec) 
Heartbeat CPU 0 instructions: 650000000 cycles: 424465448 heartbeat IPC: 1.2047 cumulative IPC: 1.20171 (Simulation time: 0 hr 20 min 7 sec) 
Heartbeat CPU 0 instructions: 660000003 cycles: 432950187 heartbeat IPC: 1.17859 cumulative IPC: 1.2012 (Simulation time: 0 hr 20 min 25 sec) 
Heartbeat CPU 0 instructions: 670000001 cycles: 441347665 heartbeat IPC: 1.19083 cumulative IPC: 1.20098 (Simulation time: 0 hr 20 min 42 sec) 
Heartbeat CPU 0 instructions: 680000001 cycles: 449646057 heartbeat IPC: 1.20505 cumulative IPC: 1.20106 (Simulation time: 0 hr 20 min 59 sec) 
Heartbeat CPU 0 instructions: 690000000 cycles: 457883281 heartbeat IPC: 1.214 cumulative IPC: 1.20132 (Simulation time: 0 hr 21 min 17 sec) 
Heartbeat CPU 0 instructions: 700000003 cycles: 466115616 heartbeat IPC: 1.21472 cumulative IPC: 1.20159 (Simulation time: 0 hr 21 min 34 sec) 
Finished CPU 0 instructions: 500000002 cycles: 416115390 cumulative IPC: 1.20159 (Simulation time: 0 hr 21 min 34 sec) 

ChampSim completed all CPUs

Region of Interest Statistics

CPU 0 cumulative IPC: 1.20159 instructions: 500000002 cycles: 416115390
cpu0_L1I TOTAL     ACCESS:   28942874  HIT:   28941871  MISS:       1003
cpu0_L1I LOAD      ACCESS:   28942874  HIT:   28941871  MISS:       1003
cpu0_L1I RFO       ACCESS:          0  HIT:          0  MISS:          0
cpu0_L1I PREFETCH  ACCESS:          0  HIT:          0  MISS:          0
cpu0_L1I WRITEBACK ACCESS:          0  HIT:          0  MISS:          0
cpu0_L1I TRANSLATION ACCESS:          0  HIT:          0  MISS:          0
cpu0_L1I PREFETCH  REQUESTED:          0  ISSUED:          0  USEFUL:          0  USELESS:          0
cpu0_L1I AVERAGE MISS LATENCY: 97.7368 cycles
cpu0_DTLB TOTAL     ACCESS:   78313909  HIT:   78313897  MISS:         12
cpu0_DTLB LOAD      ACCESS:   37910133  HIT:   37910122  MISS:         11
cpu0_DTLB RFO       ACCESS:   40403776  HIT:   40403775  MISS:          1
cpu0_DTLB PREFETCH  ACCESS:          0  HIT:          0  MISS:          0
cpu0_DTLB WRITEBACK ACCESS:          0  HIT:          0  MISS:          0
cpu0_DTLB TRANSLATION ACCESS:          0  HIT:          0  MISS:          0
cpu0_DTLB PREFETCH  REQUESTED:          0  ISSUED:          0  USEFUL:          0  USELESS:          0
cpu0_DTLB AVERAGE MISS LATENCY: 223.667 cycles
cpu0_ITLB TOTAL     ACCESS:   50833883  HIT:   50833859  MISS:         24
cpu0_ITLB LOAD      ACCESS:   50833883  HIT:   50833859  MISS:         24
cpu0_ITLB RFO       ACCESS:          0  HIT:          0  MISS:          0
cpu0_ITLB PREFETCH  ACCESS:          0  HIT:          0  MISS:          0
cpu0_ITLB WRITEBACK ACCESS:          0  HIT:          0  MISS:          0
cpu0_ITLB TRANSLATION ACCESS:          0  HIT:          0  MISS:          0
cpu0_ITLB PREFETCH  REQUESTED:          0  ISSUED:          0  USEFUL:          0  USELESS:          0
cpu0_ITLB AVERAGE MISS LATENCY: 217 cycles
cpu0_STLB TOTAL     ACCESS:         36  HIT:          0  MISS:         36
cpu0_STLB LOAD      ACCESS:         35  HIT:          0  MISS:         35
cpu0_STLB RFO       ACCESS:          1  HIT:          0  MISS:          1
cpu0_STLB PREFETCH  ACCESS:          0  HIT:          0  MISS:          0
cpu0_STLB WRITEBACK ACCESS:          0  HIT:          0  MISS:          0
cpu0_STLB TRANSLATION ACCESS:          0  HIT:          0  MISS:          0
cpu0_STLB PREFETCH  REQUESTED:          0  ISSUED:          0  USEFUL:          0  USELESS:          0
cpu0_STLB AVERAGE MISS LATENCY: 210.222 cycles
cpu0_L1D TOTAL     ACCESS:  146725403  HIT:  146725291  MISS:        112
cpu0_L1D LOAD      ACCESS:   68567295  HIT:   68567254  MISS:         41
cpu0_L1D RFO       ACCESS:   78158072  HIT:   78158002  MISS:         70
cpu0_L1D PREFETCH  ACCESS:          0  HIT:          0  MISS:          0
cpu0_L1D WRITEBACK ACCESS:          0  HIT:          0  MISS:          0
cpu0_L1D TRANSLATION ACCESS:         36  HIT:         35  MISS:          1
cpu0_L1D PREFETCH  REQUESTED:          0  ISSUED:          0  USEFUL:          0  USELESS:          0
cpu0_L1D AVERAGE MISS LATENCY: 202.42 cycles
cpu0_L2C TOTAL     ACCESS:       1115  HIT:          0  MISS:       1115
cpu0_L2C LOAD      ACCESS:       1044  HIT:          0  MISS:       1044
cpu0_L2C RFO       ACCESS:         70  HIT:          0  MISS:         70
cpu0_L2C PREFETCH  ACCESS:          0  HIT:          0  MISS:          0
cpu0_L2C WRITEBACK ACCESS:          0  HIT:          0  MISS:          0
cpu0_L2C TRANSLATION ACCESS:          1  HIT:          0  MISS:          1
cpu0_L2C PREFETCH  REQUESTED:          0  ISSUED:          0  USEFUL:          0  USELESS:          0
cpu0_L2C AVERAGE MISS LATENCY: 97.2502 cycles
LLC TOTAL     ACCESS:       1630  HIT:        453  MISS:       1177
LLC LOAD      ACCESS:       1044  HIT:        383  MISS:        661
LLC RFO       ACCESS:         70  HIT:          8  MISS:         62
LLC PREFETCH  ACCESS:        515  HIT:         62  MISS:        453
LLC WRITEBACK ACCESS:          0  HIT:          0  MISS:          0
LLC TRANSLATION ACCESS:          1  HIT:          0  MISS:          1
LLC PREFETCH  REQUESTED:       1044  ISSUED:       1044  USEFUL:        589  USELESS:          0
LLC AVERAGE MISS LATENCY: 102.782 cycles

DRAM Statistics
 CHANNEL 0
 RQ ROW_BUFFER_HIT:        600  ROW_BUFFER_MISS:        577
 DBUS AVG_CONGESTED_CYCLE:    3.82218
 WQ ROW_BUFFER_HIT:          0  ROW_BUFFER_MISS:          0  FULL:          0


CPU 0 Branch Prediction Accuracy: 75.1019% MPKI: 34.0604 Average ROB Occupancy at Mispredict: 13.0215
Branch type MPKI
BRANCH_DIRECT_JUMP: 0.00016
BRANCH_INDIRECT: 0
BRANCH_CONDITIONAL: 34.0599
BRANCH_DIRECT_CALL: 0.000166
BRANCH_INDIRECT_CALL: 0
BRANCH_RETURN: 0.000166

