/home/caslab/workspace/sim/ChampSim/bin/champsim --warmup_instructions 200000000 --simulation_instructions 500000000/ /home/caslab/workspace/sim/traces/speccpu_by_champsim648.exchange2_s-387B.champsimtrace.xz
start simulation for 648.exchange2_s-387B.champsimtrace.xz

*** ChampSim Multicore Out-of-Order Simulator ***

Warmup Instructions: 200000000
Simulation Instructions: 500000000
Number of CPUs: 1
Off-chip DRAM Size: 4 GiB Channels: 1 Width: 64-bit Data Rate: 3200 MT/s

VirtualMemory physical capacity: 8588881920 num_ppages: 2096895
VirtualMemory page size: 4096 log2_page_size: 12

CPU 0 runs /home/caslab/workspace/sim/traces/speccpu_by_champsim/648.exchange2_s-387B.champsimtrace.xz
CPU 0 Bimodal branch predictor
Basic BTB sets: 1024 ways: 8 indirect buffer size: 4096 RAS size: 64
LLC next line prefetcher
WARNING: The extended signature CACHE::prefetch_line(ip, base_addr, pf_addr, fill_this_level, prefetch_metadata) is deprecated.
WARNING: Use CACHE::prefetch_line(pf_addr, fill_this_level, prefetch_metadata) instead.
Heartbeat CPU 0 instructions: 10000002 cycles: 2500199 heartbeat IPC: 3.99968 cumulative IPC: 3.99968 (Simulation time: 0 hr 0 min 21 sec) 
Heartbeat CPU 0 instructions: 20000000 cycles: 5004661 heartbeat IPC: 3.99287 cumulative IPC: 3.99627 (Simulation time: 0 hr 0 min 41 sec) 
Heartbeat CPU 0 instructions: 30000001 cycles: 7505643 heartbeat IPC: 3.99843 cumulative IPC: 3.99699 (Simulation time: 0 hr 1 min 1 sec) 
Heartbeat CPU 0 instructions: 40000001 cycles: 10006626 heartbeat IPC: 3.99843 cumulative IPC: 3.99735 (Simulation time: 0 hr 1 min 21 sec) 
Heartbeat CPU 0 instructions: 50000000 cycles: 12507935 heartbeat IPC: 3.99791 cumulative IPC: 3.99746 (Simulation time: 0 hr 1 min 40 sec) 
Heartbeat CPU 0 instructions: 60000000 cycles: 15021184 heartbeat IPC: 3.97891 cumulative IPC: 3.99436 (Simulation time: 0 hr 2 min 0 sec) 
Heartbeat CPU 0 instructions: 70000002 cycles: 17525544 heartbeat IPC: 3.99304 cumulative IPC: 3.99417 (Simulation time: 0 hr 2 min 18 sec) 
Heartbeat CPU 0 instructions: 80000000 cycles: 20032592 heartbeat IPC: 3.98875 cumulative IPC: 3.99349 (Simulation time: 0 hr 2 min 37 sec) 
Heartbeat CPU 0 instructions: 90000001 cycles: 22534230 heartbeat IPC: 3.99738 cumulative IPC: 3.99392 (Simulation time: 0 hr 2 min 56 sec) 
Heartbeat CPU 0 instructions: 100000002 cycles: 25035540 heartbeat IPC: 3.99791 cumulative IPC: 3.99432 (Simulation time: 0 hr 3 min 16 sec) 
Heartbeat CPU 0 instructions: 110000001 cycles: 27536523 heartbeat IPC: 3.99843 cumulative IPC: 3.99469 (Simulation time: 0 hr 3 min 35 sec) 
Heartbeat CPU 0 instructions: 120000003 cycles: 30037833 heartbeat IPC: 3.99791 cumulative IPC: 3.99496 (Simulation time: 0 hr 3 min 54 sec) 
Heartbeat CPU 0 instructions: 130000003 cycles: 32539144 heartbeat IPC: 3.9979 cumulative IPC: 3.99519 (Simulation time: 0 hr 4 min 13 sec) 
Heartbeat CPU 0 instructions: 140000002 cycles: 35043506 heartbeat IPC: 3.99303 cumulative IPC: 3.99503 (Simulation time: 0 hr 4 min 32 sec) 
Heartbeat CPU 0 instructions: 150000002 cycles: 37549818 heartbeat IPC: 3.98993 cumulative IPC: 3.99469 (Simulation time: 0 hr 4 min 52 sec) 
Heartbeat CPU 0 instructions: 160000000 cycles: 40050292 heartbeat IPC: 3.99924 cumulative IPC: 3.99498 (Simulation time: 0 hr 5 min 12 sec) 
Heartbeat CPU 0 instructions: 170000001 cycles: 42562790 heartbeat IPC: 3.9801 cumulative IPC: 3.9941 (Simulation time: 0 hr 5 min 31 sec) 
Heartbeat CPU 0 instructions: 180000000 cycles: 45064426 heartbeat IPC: 3.99738 cumulative IPC: 3.99428 (Simulation time: 0 hr 5 min 51 sec) 
Heartbeat CPU 0 instructions: 190000000 cycles: 47565775 heartbeat IPC: 3.99784 cumulative IPC: 3.99447 (Simulation time: 0 hr 6 min 10 sec) 
Heartbeat CPU 0 instructions: 200000000 cycles: 50066757 heartbeat IPC: 3.99843 cumulative IPC: 3.99467 (Simulation time: 0 hr 6 min 29 sec) 

Warmup complete CPU 0 instructions: 200000004 cycles: 50066758 (Simulation time: 0 hr 6 min 29 sec) 

Heartbeat CPU 0 instructions: 210000002 cycles: 58259215 heartbeat IPC: 1.22064 cumulative IPC: 1.22063 (Simulation time: 0 hr 6 min 46 sec) 
Heartbeat CPU 0 instructions: 220000000 cycles: 66505516 heartbeat IPC: 1.21266 cumulative IPC: 1.21664 (Simulation time: 0 hr 7 min 4 sec) 
Heartbeat CPU 0 instructions: 230000002 cycles: 74892361 heartbeat IPC: 1.19234 cumulative IPC: 1.20843 (Simulation time: 0 hr 7 min 21 sec) 
Heartbeat CPU 0 instructions: 240000002 cycles: 83269464 heartbeat IPC: 1.19373 cumulative IPC: 1.20472 (Simulation time: 0 hr 7 min 38 sec) 
Heartbeat CPU 0 instructions: 250000000 cycles: 91394006 heartbeat IPC: 1.23084 cumulative IPC: 1.20986 (Simulation time: 0 hr 7 min 56 sec) 
Heartbeat CPU 0 instructions: 260000002 cycles: 99528105 heartbeat IPC: 1.22939 cumulative IPC: 1.21307 (Simulation time: 0 hr 8 min 14 sec) 
Heartbeat CPU 0 instructions: 270000002 cycles: 107535203 heartbeat IPC: 1.24889 cumulative IPC: 1.21806 (Simulation time: 0 hr 8 min 31 sec) 
Heartbeat CPU 0 instructions: 280000002 cycles: 115569976 heartbeat IPC: 1.24459 cumulative IPC: 1.22131 (Simulation time: 0 hr 8 min 49 sec) 
Heartbeat CPU 0 instructions: 290000000 cycles: 123722053 heartbeat IPC: 1.22668 cumulative IPC: 1.22191 (Simulation time: 0 hr 9 min 7 sec) 
Heartbeat CPU 0 instructions: 300000004 cycles: 131928612 heartbeat IPC: 1.21854 cumulative IPC: 1.22157 (Simulation time: 0 hr 9 min 25 sec) 
Heartbeat CPU 0 instructions: 310000004 cycles: 140085824 heartbeat IPC: 1.22591 cumulative IPC: 1.22196 (Simulation time: 0 hr 9 min 43 sec) 
Heartbeat CPU 0 instructions: 320000001 cycles: 148456338 heartbeat IPC: 1.19467 cumulative IPC: 1.21964 (Simulation time: 0 hr 10 min 0 sec) 
Heartbeat CPU 0 instructions: 330000000 cycles: 156811093 heartbeat IPC: 1.19692 cumulative IPC: 1.21786 (Simulation time: 0 hr 10 min 17 sec) 
Heartbeat CPU 0 instructions: 340000003 cycles: 164905059 heartbeat IPC: 1.23549 cumulative IPC: 1.21911 (Simulation time: 0 hr 10 min 35 sec) 
Heartbeat CPU 0 instructions: 350000000 cycles: 173071097 heartbeat IPC: 1.22458 cumulative IPC: 1.21947 (Simulation time: 0 hr 10 min 53 sec) 
Heartbeat CPU 0 instructions: 360000000 cycles: 181317654 heartbeat IPC: 1.21263 cumulative IPC: 1.21904 (Simulation time: 0 hr 11 min 10 sec) 
Heartbeat CPU 0 instructions: 370000002 cycles: 189525077 heartbeat IPC: 1.21841 cumulative IPC: 1.219 (Simulation time: 0 hr 11 min 28 sec) 
Heartbeat CPU 0 instructions: 380000001 cycles: 197601524 heartbeat IPC: 1.23817 cumulative IPC: 1.22005 (Simulation time: 0 hr 11 min 46 sec) 
Heartbeat CPU 0 instructions: 390000001 cycles: 205574946 heartbeat IPC: 1.25417 cumulative IPC: 1.2218 (Simulation time: 0 hr 12 min 4 sec) 
Heartbeat CPU 0 instructions: 400000000 cycles: 213745551 heartbeat IPC: 1.2239 cumulative IPC: 1.22191 (Simulation time: 0 hr 12 min 21 sec) 
Heartbeat CPU 0 instructions: 410000000 cycles: 221959475 heartbeat IPC: 1.21744 cumulative IPC: 1.22169 (Simulation time: 0 hr 12 min 39 sec) 
Heartbeat CPU 0 instructions: 420000003 cycles: 230120816 heartbeat IPC: 1.22529 cumulative IPC: 1.22186 (Simulation time: 0 hr 12 min 57 sec) 
Heartbeat CPU 0 instructions: 430000003 cycles: 238594950 heartbeat IPC: 1.18006 cumulative IPC: 1.21998 (Simulation time: 0 hr 13 min 14 sec) 
Heartbeat CPU 0 instructions: 440000000 cycles: 247113733 heartbeat IPC: 1.17388 cumulative IPC: 1.21798 (Simulation time: 0 hr 13 min 32 sec) 
Heartbeat CPU 0 instructions: 450000003 cycles: 255586679 heartbeat IPC: 1.18023 cumulative IPC: 1.21643 (Simulation time: 0 hr 13 min 50 sec) 
Heartbeat CPU 0 instructions: 460000001 cycles: 263981285 heartbeat IPC: 1.19124 cumulative IPC: 1.21544 (Simulation time: 0 hr 14 min 7 sec) 
Heartbeat CPU 0 instructions: 470000003 cycles: 271959962 heartbeat IPC: 1.25334 cumulative IPC: 1.2168 (Simulation time: 0 hr 14 min 25 sec) 
Heartbeat CPU 0 instructions: 480000000 cycles: 280163060 heartbeat IPC: 1.21905 cumulative IPC: 1.21688 (Simulation time: 0 hr 14 min 42 sec) 
Heartbeat CPU 0 instructions: 490000001 cycles: 288178780 heartbeat IPC: 1.24755 cumulative IPC: 1.21791 (Simulation time: 0 hr 15 min 0 sec) 
Heartbeat CPU 0 instructions: 500000003 cycles: 296157231 heartbeat IPC: 1.25338 cumulative IPC: 1.21906 (Simulation time: 0 hr 15 min 18 sec) 
Heartbeat CPU 0 instructions: 510000003 cycles: 304531634 heartbeat IPC: 1.19411 cumulative IPC: 1.21824 (Simulation time: 0 hr 15 min 35 sec) 
Heartbeat CPU 0 instructions: 520000001 cycles: 312548408 heartbeat IPC: 1.24738 cumulative IPC: 1.21913 (Simulation time: 0 hr 15 min 53 sec) 
Heartbeat CPU 0 instructions: 530000002 cycles: 320759525 heartbeat IPC: 1.21786 cumulative IPC: 1.21909 (Simulation time: 0 hr 16 min 11 sec) 
Heartbeat CPU 0 instructions: 540000001 cycles: 328807834 heartbeat IPC: 1.2425 cumulative IPC: 1.21977 (Simulation time: 0 hr 16 min 29 sec) 
Heartbeat CPU 0 instructions: 550000000 cycles: 336876296 heartbeat IPC: 1.23939 cumulative IPC: 1.22032 (Simulation time: 0 hr 16 min 46 sec) 
Heartbeat CPU 0 instructions: 560000002 cycles: 345082412 heartbeat IPC: 1.2186 cumulative IPC: 1.22027 (Simulation time: 0 hr 17 min 4 sec) 
Heartbeat CPU 0 instructions: 570000001 cycles: 353372397 heartbeat IPC: 1.20627 cumulative IPC: 1.21989 (Simulation time: 0 hr 17 min 21 sec) 
Heartbeat CPU 0 instructions: 580000000 cycles: 361651042 heartbeat IPC: 1.20793 cumulative IPC: 1.21957 (Simulation time: 0 hr 17 min 39 sec) 
Heartbeat CPU 0 instructions: 590000000 cycles: 369958563 heartbeat IPC: 1.20373 cumulative IPC: 1.21916 (Simulation time: 0 hr 17 min 56 sec) 
Heartbeat CPU 0 instructions: 600000002 cycles: 378353862 heartbeat IPC: 1.19114 cumulative IPC: 1.21845 (Simulation time: 0 hr 18 min 14 sec) 
Heartbeat CPU 0 instructions: 610000000 cycles: 386404734 heartbeat IPC: 1.2421 cumulative IPC: 1.21901 (Simulation time: 0 hr 18 min 31 sec) 
Heartbeat CPU 0 instructions: 620000002 cycles: 394641423 heartbeat IPC: 1.21408 cumulative IPC: 1.21889 (Simulation time: 0 hr 18 min 49 sec) 
Heartbeat CPU 0 instructions: 630000000 cycles: 402836236 heartbeat IPC: 1.22028 cumulative IPC: 1.21893 (Simulation time: 0 hr 19 min 6 sec) 
Heartbeat CPU 0 instructions: 640000002 cycles: 411057481 heartbeat IPC: 1.21636 cumulative IPC: 1.21887 (Simulation time: 0 hr 19 min 24 sec) 
Heartbeat CPU 0 instructions: 650000003 cycles: 419379768 heartbeat IPC: 1.20159 cumulative IPC: 1.21848 (Simulation time: 0 hr 19 min 42 sec) 
Heartbeat CPU 0 instructions: 660000000 cycles: 427498303 heartbeat IPC: 1.23175 cumulative IPC: 1.21876 (Simulation time: 0 hr 19 min 59 sec) 
Heartbeat CPU 0 instructions: 670000000 cycles: 435781193 heartbeat IPC: 1.20731 cumulative IPC: 1.21852 (Simulation time: 0 hr 20 min 17 sec) 
Heartbeat CPU 0 instructions: 680000003 cycles: 443937381 heartbeat IPC: 1.22606 cumulative IPC: 1.21867 (Simulation time: 0 hr 20 min 34 sec) 
Heartbeat CPU 0 instructions: 690000000 cycles: 451878286 heartbeat IPC: 1.2593 cumulative IPC: 1.21948 (Simulation time: 0 hr 20 min 52 sec) 
Heartbeat CPU 0 instructions: 700000002 cycles: 459807197 heartbeat IPC: 1.26121 cumulative IPC: 1.22028 (Simulation time: 0 hr 21 min 10 sec) 
Finished CPU 0 instructions: 500000003 cycles: 409740452 cumulative IPC: 1.22028 (Simulation time: 0 hr 21 min 10 sec) 

ChampSim completed all CPUs

Region of Interest Statistics

CPU 0 cumulative IPC: 1.22028 instructions: 500000003 cycles: 409740452
cpu0_L1I TOTAL     ACCESS:   26712724  HIT:   26712667  MISS:         57
cpu0_L1I LOAD      ACCESS:   26712724  HIT:   26712667  MISS:         57
cpu0_L1I RFO       ACCESS:          0  HIT:          0  MISS:          0
cpu0_L1I PREFETCH  ACCESS:          0  HIT:          0  MISS:          0
cpu0_L1I WRITEBACK ACCESS:          0  HIT:          0  MISS:          0
cpu0_L1I TRANSLATION ACCESS:          0  HIT:          0  MISS:          0
cpu0_L1I PREFETCH  REQUESTED:          0  ISSUED:          0  USEFUL:          0  USELESS:          0
cpu0_L1I AVERAGE MISS LATENCY: 95.9825 cycles
cpu0_DTLB TOTAL     ACCESS:   81516121  HIT:   81516121  MISS:          0
cpu0_DTLB LOAD      ACCESS:   45940398  HIT:   45940398  MISS:          0
cpu0_DTLB RFO       ACCESS:   35575723  HIT:   35575723  MISS:          0
cpu0_DTLB PREFETCH  ACCESS:          0  HIT:          0  MISS:          0
cpu0_DTLB WRITEBACK ACCESS:          0  HIT:          0  MISS:          0
cpu0_DTLB TRANSLATION ACCESS:          0  HIT:          0  MISS:          0
cpu0_DTLB PREFETCH  REQUESTED:          0  ISSUED:          0  USEFUL:          0  USELESS:          0
cpu0_DTLB AVERAGE MISS LATENCY: -nan cycles
cpu0_ITLB TOTAL     ACCESS:   52072820  HIT:   52072820  MISS:          0
cpu0_ITLB LOAD      ACCESS:   52072820  HIT:   52072820  MISS:          0
cpu0_ITLB RFO       ACCESS:          0  HIT:          0  MISS:          0
cpu0_ITLB PREFETCH  ACCESS:          0  HIT:          0  MISS:          0
cpu0_ITLB WRITEBACK ACCESS:          0  HIT:          0  MISS:          0
cpu0_ITLB TRANSLATION ACCESS:          0  HIT:          0  MISS:          0
cpu0_ITLB PREFETCH  REQUESTED:          0  ISSUED:          0  USEFUL:          0  USELESS:          0
cpu0_ITLB AVERAGE MISS LATENCY: -nan cycles
cpu0_L1D TOTAL     ACCESS:  129756581  HIT:  129756581  MISS:          0
cpu0_L1D LOAD      ACCESS:   65773672  HIT:   65773672  MISS:          0
cpu0_L1D RFO       ACCESS:   63982909  HIT:   63982909  MISS:          0
cpu0_L1D PREFETCH  ACCESS:          0  HIT:          0  MISS:          0
cpu0_L1D WRITEBACK ACCESS:          0  HIT:          0  MISS:          0
cpu0_L1D TRANSLATION ACCESS:          0  HIT:          0  MISS:          0
cpu0_L1D PREFETCH  REQUESTED:          0  ISSUED:          0  USEFUL:          0  USELESS:          0
cpu0_L1D AVERAGE MISS LATENCY: -nan cycles
cpu0_L2C TOTAL     ACCESS:         57  HIT:          0  MISS:         57
cpu0_L2C LOAD      ACCESS:         57  HIT:          0  MISS:         57
cpu0_L2C RFO       ACCESS:          0  HIT:          0  MISS:          0
cpu0_L2C PREFETCH  ACCESS:          0  HIT:          0  MISS:          0
cpu0_L2C WRITEBACK ACCESS:          0  HIT:          0  MISS:          0
cpu0_L2C TRANSLATION ACCESS:          0  HIT:          0  MISS:          0
cpu0_L2C PREFETCH  REQUESTED:          0  ISSUED:          0  USEFUL:          0  USELESS:          0
cpu0_L2C AVERAGE MISS LATENCY: 84.9825 cycles
LLC TOTAL     ACCESS:         82  HIT:         28  MISS:         54
LLC LOAD      ACCESS:         57  HIT:         23  MISS:         34
LLC RFO       ACCESS:          0  HIT:          0  MISS:          0
LLC PREFETCH  ACCESS:         25  HIT:          5  MISS:         20
LLC WRITEBACK ACCESS:          0  HIT:          0  MISS:          0
LLC TRANSLATION ACCESS:          0  HIT:          0  MISS:          0
LLC PREFETCH  REQUESTED:         57  ISSUED:         57  USEFUL:         37  USELESS:          0
LLC AVERAGE MISS LATENCY: 87.463 cycles

DRAM Statistics
 CHANNEL 0
 RQ ROW_BUFFER_HIT:         24  ROW_BUFFER_MISS:         30
 DBUS AVG_CONGESTED_CYCLE:    3.89815
 WQ ROW_BUFFER_HIT:          0  ROW_BUFFER_MISS:          0  FULL:          0


CPU 0 Branch Prediction Accuracy: 79.4786% MPKI: 31.5847 Average ROB Occupancy at Mispredict: 15.951
Branch type MPKI
BRANCH_DIRECT_JUMP: 4e-06
BRANCH_INDIRECT: 0
BRANCH_CONDITIONAL: 31.5847
BRANCH_DIRECT_CALL: 0
BRANCH_INDIRECT_CALL: 0
BRANCH_RETURN: 0

