/home/caslab/workspace/sim/ChampSim/bin/champsim --warmup_instructions 200000000 --simulation_instructions 500000000/ /home/caslab/workspace/sim/traces/speccpu_by_champsim649.fotonik3d_s-1B.champsimtrace.xz
start simulation for 649.fotonik3d_s-1B.champsimtrace.xz

*** ChampSim Multicore Out-of-Order Simulator ***

Warmup Instructions: 200000000
Simulation Instructions: 500000000
Number of CPUs: 1
Off-chip DRAM Size: 4 GiB Channels: 1 Width: 64-bit Data Rate: 3200 MT/s

VirtualMemory physical capacity: 8588881920 num_ppages: 2096895
VirtualMemory page size: 4096 log2_page_size: 12

CPU 0 runs /home/caslab/workspace/sim/traces/speccpu_by_champsim/649.fotonik3d_s-1B.champsimtrace.xz
CPU 0 Bimodal branch predictor
Basic BTB sets: 1024 ways: 8 indirect buffer size: 4096 RAS size: 64
LLC next line prefetcher
WARNING: The extended signature CACHE::prefetch_line(ip, base_addr, pf_addr, fill_this_level, prefetch_metadata) is deprecated.
WARNING: Use CACHE::prefetch_line(pf_addr, fill_this_level, prefetch_metadata) instead.
Heartbeat CPU 0 instructions: 10000003 cycles: 2500204 heartbeat IPC: 3.99967 cumulative IPC: 3.99967 (Simulation time: 0 hr 0 min 21 sec) 
Heartbeat CPU 0 instructions: 20000003 cycles: 5000204 heartbeat IPC: 4 cumulative IPC: 3.99984 (Simulation time: 0 hr 0 min 41 sec) 
Heartbeat CPU 0 instructions: 30000003 cycles: 7500204 heartbeat IPC: 4 cumulative IPC: 3.99989 (Simulation time: 0 hr 1 min 1 sec) 
Heartbeat CPU 0 instructions: 40000003 cycles: 10000204 heartbeat IPC: 4 cumulative IPC: 3.99992 (Simulation time: 0 hr 1 min 20 sec) 
Heartbeat CPU 0 instructions: 50000003 cycles: 12500204 heartbeat IPC: 4 cumulative IPC: 3.99993 (Simulation time: 0 hr 1 min 40 sec) 
Heartbeat CPU 0 instructions: 60000003 cycles: 15000204 heartbeat IPC: 4 cumulative IPC: 3.99995 (Simulation time: 0 hr 2 min 0 sec) 
Heartbeat CPU 0 instructions: 70000003 cycles: 17500204 heartbeat IPC: 4 cumulative IPC: 3.99995 (Simulation time: 0 hr 2 min 20 sec) 
Heartbeat CPU 0 instructions: 80000003 cycles: 20000204 heartbeat IPC: 4 cumulative IPC: 3.99996 (Simulation time: 0 hr 2 min 39 sec) 
Heartbeat CPU 0 instructions: 90000003 cycles: 22500204 heartbeat IPC: 4 cumulative IPC: 3.99996 (Simulation time: 0 hr 3 min 0 sec) 
Heartbeat CPU 0 instructions: 100000003 cycles: 25000204 heartbeat IPC: 4 cumulative IPC: 3.99997 (Simulation time: 0 hr 3 min 19 sec) 
Heartbeat CPU 0 instructions: 110000003 cycles: 27500204 heartbeat IPC: 4 cumulative IPC: 3.99997 (Simulation time: 0 hr 3 min 39 sec) 
Heartbeat CPU 0 instructions: 120000003 cycles: 30000204 heartbeat IPC: 4 cumulative IPC: 3.99997 (Simulation time: 0 hr 3 min 59 sec) 
Heartbeat CPU 0 instructions: 130000003 cycles: 32500204 heartbeat IPC: 4 cumulative IPC: 3.99997 (Simulation time: 0 hr 4 min 18 sec) 
Heartbeat CPU 0 instructions: 140000003 cycles: 35000204 heartbeat IPC: 4 cumulative IPC: 3.99998 (Simulation time: 0 hr 4 min 38 sec) 
Heartbeat CPU 0 instructions: 150000003 cycles: 37500204 heartbeat IPC: 4 cumulative IPC: 3.99998 (Simulation time: 0 hr 4 min 58 sec) 
Heartbeat CPU 0 instructions: 160000003 cycles: 40000204 heartbeat IPC: 4 cumulative IPC: 3.99998 (Simulation time: 0 hr 5 min 18 sec) 
Heartbeat CPU 0 instructions: 170000003 cycles: 42500204 heartbeat IPC: 4 cumulative IPC: 3.99998 (Simulation time: 0 hr 5 min 38 sec) 
Heartbeat CPU 0 instructions: 180000003 cycles: 45000204 heartbeat IPC: 4 cumulative IPC: 3.99998 (Simulation time: 0 hr 5 min 58 sec) 
Heartbeat CPU 0 instructions: 190000003 cycles: 47500204 heartbeat IPC: 4 cumulative IPC: 3.99998 (Simulation time: 0 hr 6 min 17 sec) 
Heartbeat CPU 0 instructions: 200000003 cycles: 50000204 heartbeat IPC: 4 cumulative IPC: 3.99998 (Simulation time: 0 hr 6 min 37 sec) 

Warmup complete CPU 0 instructions: 200000003 cycles: 50000204 (Simulation time: 0 hr 6 min 37 sec) 

Heartbeat CPU 0 instructions: 210000001 cycles: 55847644 heartbeat IPC: 1.71015 cumulative IPC: 1.71015 (Simulation time: 0 hr 7 min 0 sec) 
Heartbeat CPU 0 instructions: 220000000 cycles: 61692128 heartbeat IPC: 1.71101 cumulative IPC: 1.71058 (Simulation time: 0 hr 7 min 24 sec) 
Heartbeat CPU 0 instructions: 230000001 cycles: 67537076 heartbeat IPC: 1.71088 cumulative IPC: 1.71068 (Simulation time: 0 hr 7 min 46 sec) 
Heartbeat CPU 0 instructions: 240000004 cycles: 73382436 heartbeat IPC: 1.71076 cumulative IPC: 1.7107 (Simulation time: 0 hr 8 min 9 sec) 
Heartbeat CPU 0 instructions: 250000001 cycles: 79227729 heartbeat IPC: 1.71078 cumulative IPC: 1.71072 (Simulation time: 0 hr 8 min 32 sec) 
Heartbeat CPU 0 instructions: 260000001 cycles: 85072329 heartbeat IPC: 1.71098 cumulative IPC: 1.71076 (Simulation time: 0 hr 8 min 55 sec) 
Heartbeat CPU 0 instructions: 270000003 cycles: 90917826 heartbeat IPC: 1.71072 cumulative IPC: 1.71075 (Simulation time: 0 hr 9 min 17 sec) 
Heartbeat CPU 0 instructions: 280000000 cycles: 96763145 heartbeat IPC: 1.71077 cumulative IPC: 1.71076 (Simulation time: 0 hr 9 min 40 sec) 
Heartbeat CPU 0 instructions: 290000002 cycles: 102608025 heartbeat IPC: 1.7109 cumulative IPC: 1.71077 (Simulation time: 0 hr 10 min 3 sec) 
Heartbeat CPU 0 instructions: 300000000 cycles: 108483153 heartbeat IPC: 1.70209 cumulative IPC: 1.7099 (Simulation time: 0 hr 10 min 26 sec) 
Heartbeat CPU 0 instructions: 310000001 cycles: 114403338 heartbeat IPC: 1.68914 cumulative IPC: 1.70799 (Simulation time: 0 hr 10 min 49 sec) 
Heartbeat CPU 0 instructions: 320000001 cycles: 120261848 heartbeat IPC: 1.70692 cumulative IPC: 1.7079 (Simulation time: 0 hr 11 min 13 sec) 
Heartbeat CPU 0 instructions: 330000001 cycles: 126107114 heartbeat IPC: 1.71079 cumulative IPC: 1.70812 (Simulation time: 0 hr 11 min 36 sec) 
Heartbeat CPU 0 instructions: 340000000 cycles: 131952589 heartbeat IPC: 1.71072 cumulative IPC: 1.70831 (Simulation time: 0 hr 11 min 59 sec) 
Heartbeat CPU 0 instructions: 350000002 cycles: 137797090 heartbeat IPC: 1.71101 cumulative IPC: 1.70849 (Simulation time: 0 hr 12 min 22 sec) 
Heartbeat CPU 0 instructions: 360000000 cycles: 143641841 heartbeat IPC: 1.71094 cumulative IPC: 1.70864 (Simulation time: 0 hr 12 min 45 sec) 
Heartbeat CPU 0 instructions: 370000000 cycles: 149486855 heartbeat IPC: 1.71086 cumulative IPC: 1.70877 (Simulation time: 0 hr 13 min 7 sec) 
Heartbeat CPU 0 instructions: 380000004 cycles: 155332147 heartbeat IPC: 1.71078 cumulative IPC: 1.70888 (Simulation time: 0 hr 13 min 30 sec) 
Heartbeat CPU 0 instructions: 390000001 cycles: 161177065 heartbeat IPC: 1.71089 cumulative IPC: 1.70899 (Simulation time: 0 hr 13 min 53 sec) 
Heartbeat CPU 0 instructions: 400000000 cycles: 167021634 heartbeat IPC: 1.71099 cumulative IPC: 1.70909 (Simulation time: 0 hr 14 min 16 sec) 
Heartbeat CPU 0 instructions: 410000000 cycles: 172866515 heartbeat IPC: 1.7109 cumulative IPC: 1.70917 (Simulation time: 0 hr 14 min 39 sec) 
Heartbeat CPU 0 instructions: 420000002 cycles: 178711045 heartbeat IPC: 1.711 cumulative IPC: 1.70926 (Simulation time: 0 hr 15 min 2 sec) 
Heartbeat CPU 0 instructions: 430000000 cycles: 184555755 heartbeat IPC: 1.71095 cumulative IPC: 1.70933 (Simulation time: 0 hr 15 min 25 sec) 
Heartbeat CPU 0 instructions: 440000003 cycles: 190400638 heartbeat IPC: 1.7109 cumulative IPC: 1.7094 (Simulation time: 0 hr 15 min 48 sec) 
Heartbeat CPU 0 instructions: 450000003 cycles: 196245834 heartbeat IPC: 1.71081 cumulative IPC: 1.70945 (Simulation time: 0 hr 16 min 11 sec) 
Heartbeat CPU 0 instructions: 460000002 cycles: 202090841 heartbeat IPC: 1.71086 cumulative IPC: 1.70951 (Simulation time: 0 hr 16 min 34 sec) 
Heartbeat CPU 0 instructions: 470000004 cycles: 207935926 heartbeat IPC: 1.71084 cumulative IPC: 1.70956 (Simulation time: 0 hr 16 min 57 sec) 
Heartbeat CPU 0 instructions: 480000004 cycles: 213780679 heartbeat IPC: 1.71094 cumulative IPC: 1.70961 (Simulation time: 0 hr 17 min 20 sec) 
Heartbeat CPU 0 instructions: 490000002 cycles: 219625821 heartbeat IPC: 1.71082 cumulative IPC: 1.70965 (Simulation time: 0 hr 17 min 43 sec) 
Heartbeat CPU 0 instructions: 500000001 cycles: 225471385 heartbeat IPC: 1.7107 cumulative IPC: 1.70968 (Simulation time: 0 hr 18 min 6 sec) 
Heartbeat CPU 0 instructions: 510000000 cycles: 231339727 heartbeat IPC: 1.70406 cumulative IPC: 1.7095 (Simulation time: 0 hr 18 min 29 sec) 
Heartbeat CPU 0 instructions: 520000001 cycles: 237259805 heartbeat IPC: 1.68917 cumulative IPC: 1.70886 (Simulation time: 0 hr 18 min 51 sec) 
Heartbeat CPU 0 instructions: 530000003 cycles: 243124957 heartbeat IPC: 1.70499 cumulative IPC: 1.70874 (Simulation time: 0 hr 19 min 14 sec) 
Heartbeat CPU 0 instructions: 540000000 cycles: 248970077 heartbeat IPC: 1.71083 cumulative IPC: 1.7088 (Simulation time: 0 hr 19 min 37 sec) 
Heartbeat CPU 0 instructions: 550000001 cycles: 254815196 heartbeat IPC: 1.71083 cumulative IPC: 1.70886 (Simulation time: 0 hr 20 min 0 sec) 
Heartbeat CPU 0 instructions: 560000002 cycles: 260660892 heartbeat IPC: 1.71066 cumulative IPC: 1.70891 (Simulation time: 0 hr 20 min 24 sec) 
Heartbeat CPU 0 instructions: 570000000 cycles: 266506039 heartbeat IPC: 1.71082 cumulative IPC: 1.70896 (Simulation time: 0 hr 20 min 47 sec) 
Heartbeat CPU 0 instructions: 580000001 cycles: 272351067 heartbeat IPC: 1.71086 cumulative IPC: 1.70901 (Simulation time: 0 hr 21 min 10 sec) 
Heartbeat CPU 0 instructions: 590000004 cycles: 278196542 heartbeat IPC: 1.71073 cumulative IPC: 1.70905 (Simulation time: 0 hr 21 min 32 sec) 
Heartbeat CPU 0 instructions: 600000001 cycles: 284041800 heartbeat IPC: 1.71079 cumulative IPC: 1.7091 (Simulation time: 0 hr 21 min 55 sec) 
Heartbeat CPU 0 instructions: 610000004 cycles: 289886740 heartbeat IPC: 1.71088 cumulative IPC: 1.70914 (Simulation time: 0 hr 22 min 18 sec) 
Heartbeat CPU 0 instructions: 620000000 cycles: 295731992 heartbeat IPC: 1.71079 cumulative IPC: 1.70918 (Simulation time: 0 hr 22 min 40 sec) 
Heartbeat CPU 0 instructions: 630000001 cycles: 301577456 heartbeat IPC: 1.71073 cumulative IPC: 1.70922 (Simulation time: 0 hr 23 min 3 sec) 
Heartbeat CPU 0 instructions: 640000000 cycles: 307422244 heartbeat IPC: 1.71093 cumulative IPC: 1.70926 (Simulation time: 0 hr 23 min 26 sec) 
Heartbeat CPU 0 instructions: 650000001 cycles: 313267315 heartbeat IPC: 1.71084 cumulative IPC: 1.70929 (Simulation time: 0 hr 23 min 49 sec) 
Heartbeat CPU 0 instructions: 660000002 cycles: 319111921 heartbeat IPC: 1.71098 cumulative IPC: 1.70933 (Simulation time: 0 hr 24 min 12 sec) 
Heartbeat CPU 0 instructions: 670000004 cycles: 324956694 heartbeat IPC: 1.71093 cumulative IPC: 1.70936 (Simulation time: 0 hr 24 min 34 sec) 
Heartbeat CPU 0 instructions: 680000003 cycles: 330801881 heartbeat IPC: 1.71081 cumulative IPC: 1.70939 (Simulation time: 0 hr 24 min 57 sec) 
Heartbeat CPU 0 instructions: 690000004 cycles: 336647121 heartbeat IPC: 1.71079 cumulative IPC: 1.70942 (Simulation time: 0 hr 25 min 20 sec) 
Heartbeat CPU 0 instructions: 700000000 cycles: 342492240 heartbeat IPC: 1.71083 cumulative IPC: 1.70945 (Simulation time: 0 hr 25 min 43 sec) 
Finished CPU 0 instructions: 500000002 cycles: 292492037 cumulative IPC: 1.70945 (Simulation time: 0 hr 25 min 43 sec) 

ChampSim completed all CPUs

Region of Interest Statistics

CPU 0 cumulative IPC: 1.70945 instructions: 500000002 cycles: 292492037
cpu0_L1I TOTAL     ACCESS:   27617009  HIT:   27617009  MISS:          0
cpu0_L1I LOAD      ACCESS:   27617009  HIT:   27617009  MISS:          0
cpu0_L1I RFO       ACCESS:          0  HIT:          0  MISS:          0
cpu0_L1I PREFETCH  ACCESS:          0  HIT:          0  MISS:          0
cpu0_L1I WRITEBACK ACCESS:          0  HIT:          0  MISS:          0
cpu0_L1I TRANSLATION ACCESS:          0  HIT:          0  MISS:          0
cpu0_L1I PREFETCH  REQUESTED:          0  ISSUED:          0  USEFUL:          0  USELESS:          0
cpu0_L1I AVERAGE MISS LATENCY: -nan cycles
cpu0_DTLB TOTAL     ACCESS:   87594531  HIT:   87592442  MISS:       2089
cpu0_DTLB LOAD      ACCESS:   46065220  HIT:   46065216  MISS:          4
cpu0_DTLB RFO       ACCESS:   41529311  HIT:   41527226  MISS:       2085
cpu0_DTLB PREFETCH  ACCESS:          0  HIT:          0  MISS:          0
cpu0_DTLB WRITEBACK ACCESS:          0  HIT:          0  MISS:          0
cpu0_DTLB TRANSLATION ACCESS:          0  HIT:          0  MISS:          0
cpu0_DTLB PREFETCH  REQUESTED:          0  ISSUED:          0  USEFUL:          0  USELESS:          0
cpu0_DTLB AVERAGE MISS LATENCY: 50.2216 cycles
cpu0_ITLB TOTAL     ACCESS:   53943096  HIT:   53943096  MISS:          0
cpu0_ITLB LOAD      ACCESS:   53943096  HIT:   53943096  MISS:          0
cpu0_ITLB RFO       ACCESS:          0  HIT:          0  MISS:          0
cpu0_ITLB PREFETCH  ACCESS:          0  HIT:          0  MISS:          0
cpu0_ITLB WRITEBACK ACCESS:          0  HIT:          0  MISS:          0
cpu0_ITLB TRANSLATION ACCESS:          0  HIT:          0  MISS:          0
cpu0_ITLB PREFETCH  REQUESTED:          0  ISSUED:          0  USEFUL:          0  USELESS:          0
cpu0_ITLB AVERAGE MISS LATENCY: -nan cycles
cpu0_STLB TOTAL     ACCESS:       2089  HIT:       1675  MISS:        414
cpu0_STLB LOAD      ACCESS:          4  HIT:          4  MISS:          0
cpu0_STLB RFO       ACCESS:       2085  HIT:       1671  MISS:        414
cpu0_STLB PREFETCH  ACCESS:          0  HIT:          0  MISS:          0
cpu0_STLB WRITEBACK ACCESS:          0  HIT:          0  MISS:          0
cpu0_STLB TRANSLATION ACCESS:          0  HIT:          0  MISS:          0
cpu0_STLB PREFETCH  REQUESTED:          0  ISSUED:          0  USEFUL:          0  USELESS:          0
cpu0_STLB AVERAGE MISS LATENCY: 208 cycles
cpu0_L1D TOTAL     ACCESS:  131109579  HIT:  131083914  MISS:      25665
cpu0_L1D LOAD      ACCESS:   50597116  HIT:   50597116  MISS:          0
cpu0_L1D RFO       ACCESS:   80512049  HIT:   80486384  MISS:      25665
cpu0_L1D PREFETCH  ACCESS:          0  HIT:          0  MISS:          0
cpu0_L1D WRITEBACK ACCESS:          0  HIT:          0  MISS:          0
cpu0_L1D TRANSLATION ACCESS:        414  HIT:        414  MISS:          0
cpu0_L1D PREFETCH  REQUESTED:          0  ISSUED:          0  USEFUL:          0  USELESS:          0
cpu0_L1D AVERAGE MISS LATENCY: 194.213 cycles
cpu0_L2C TOTAL     ACCESS:      26703  HIT:       1038  MISS:      25665
cpu0_L2C LOAD      ACCESS:          0  HIT:          0  MISS:          0
cpu0_L2C RFO       ACCESS:      25665  HIT:          0  MISS:      25665
cpu0_L2C PREFETCH  ACCESS:          0  HIT:          0  MISS:          0
cpu0_L2C WRITEBACK ACCESS:       1038  HIT:       1038  MISS:          0
cpu0_L2C TRANSLATION ACCESS:          0  HIT:          0  MISS:          0
cpu0_L2C PREFETCH  REQUESTED:          0  ISSUED:          0  USEFUL:          0  USELESS:          0
cpu0_L2C AVERAGE MISS LATENCY: 183.213 cycles
LLC TOTAL     ACCESS:      25665  HIT:          0  MISS:      25665
LLC LOAD      ACCESS:          0  HIT:          0  MISS:          0
LLC RFO       ACCESS:      25665  HIT:          0  MISS:      25665
LLC PREFETCH  ACCESS:          0  HIT:          0  MISS:          0
LLC WRITEBACK ACCESS:          0  HIT:          0  MISS:          0
LLC TRANSLATION ACCESS:          0  HIT:          0  MISS:          0
LLC PREFETCH  REQUESTED:          0  ISSUED:          0  USEFUL:          0  USELESS:         85
LLC AVERAGE MISS LATENCY: 162.213 cycles

DRAM Statistics
 CHANNEL 0
 RQ ROW_BUFFER_HIT:          0  ROW_BUFFER_MISS:      25665
 DBUS AVG_CONGESTED_CYCLE: -
 WQ ROW_BUFFER_HIT:          0  ROW_BUFFER_MISS:          0  FULL:          0


CPU 0 Branch Prediction Accuracy: 95.8733% MPKI: 9.81167 Average ROB Occupancy at Mispredict: 73.2754
Branch type MPKI
BRANCH_DIRECT_JUMP: 0
BRANCH_INDIRECT: 0.27333
BRANCH_CONDITIONAL: 9.53834
BRANCH_DIRECT_CALL: 0
BRANCH_INDIRECT_CALL: 0
BRANCH_RETURN: 0

