/home/caslab/workspace/sim/ChampSim/bin/champsim --warmup_instructions 200000000 --simulation_instructions 500000000/ /home/caslab/workspace/sim/traces/speccpu_by_champsim649.fotonik3d_s-1176B.champsimtrace.xz
start simulation for 649.fotonik3d_s-1176B.champsimtrace.xz

*** ChampSim Multicore Out-of-Order Simulator ***

Warmup Instructions: 200000000
Simulation Instructions: 500000000
Number of CPUs: 1
Off-chip DRAM Size: 4 GiB Channels: 1 Width: 64-bit Data Rate: 3200 MT/s

VirtualMemory physical capacity: 8588881920 num_ppages: 2096895
VirtualMemory page size: 4096 log2_page_size: 12

CPU 0 runs /home/caslab/workspace/sim/traces/speccpu_by_champsim/649.fotonik3d_s-1176B.champsimtrace.xz
CPU 0 Bimodal branch predictor
Basic BTB sets: 1024 ways: 8 indirect buffer size: 4096 RAS size: 64
LLC next line prefetcher
WARNING: The extended signature CACHE::prefetch_line(ip, base_addr, pf_addr, fill_this_level, prefetch_metadata) is deprecated.
WARNING: Use CACHE::prefetch_line(pf_addr, fill_this_level, prefetch_metadata) instead.
Heartbeat CPU 0 instructions: 10000001 cycles: 3507807 heartbeat IPC: 2.85078 cumulative IPC: 2.85078 (Simulation time: 0 hr 0 min 30 sec) 
Heartbeat CPU 0 instructions: 20000001 cycles: 7015493 heartbeat IPC: 2.85088 cumulative IPC: 2.85083 (Simulation time: 0 hr 1 min 1 sec) 
Heartbeat CPU 0 instructions: 30000000 cycles: 10523176 heartbeat IPC: 2.85088 cumulative IPC: 2.85085 (Simulation time: 0 hr 1 min 31 sec) 
Heartbeat CPU 0 instructions: 40000000 cycles: 14030862 heartbeat IPC: 2.85088 cumulative IPC: 2.85086 (Simulation time: 0 hr 2 min 1 sec) 
Heartbeat CPU 0 instructions: 50000004 cycles: 17538546 heartbeat IPC: 2.85089 cumulative IPC: 2.85086 (Simulation time: 0 hr 2 min 31 sec) 
Heartbeat CPU 0 instructions: 60000003 cycles: 21046282 heartbeat IPC: 2.85084 cumulative IPC: 2.85086 (Simulation time: 0 hr 3 min 1 sec) 
Heartbeat CPU 0 instructions: 70000002 cycles: 24553965 heartbeat IPC: 2.85088 cumulative IPC: 2.85086 (Simulation time: 0 hr 3 min 31 sec) 
Heartbeat CPU 0 instructions: 80000002 cycles: 28061651 heartbeat IPC: 2.85088 cumulative IPC: 2.85087 (Simulation time: 0 hr 4 min 1 sec) 
Heartbeat CPU 0 instructions: 90000000 cycles: 31569334 heartbeat IPC: 2.85088 cumulative IPC: 2.85087 (Simulation time: 0 hr 4 min 32 sec) 
Heartbeat CPU 0 instructions: 100000001 cycles: 35077021 heartbeat IPC: 2.85088 cumulative IPC: 2.85087 (Simulation time: 0 hr 5 min 2 sec) 
Heartbeat CPU 0 instructions: 110000004 cycles: 38584711 heartbeat IPC: 2.85088 cumulative IPC: 2.85087 (Simulation time: 0 hr 5 min 32 sec) 
Heartbeat CPU 0 instructions: 120000001 cycles: 42092393 heartbeat IPC: 2.85088 cumulative IPC: 2.85087 (Simulation time: 0 hr 6 min 2 sec) 
Heartbeat CPU 0 instructions: 130000003 cycles: 45600080 heartbeat IPC: 2.85088 cumulative IPC: 2.85087 (Simulation time: 0 hr 6 min 32 sec) 
Heartbeat CPU 0 instructions: 140000000 cycles: 49107762 heartbeat IPC: 2.85088 cumulative IPC: 2.85087 (Simulation time: 0 hr 7 min 2 sec) 
Heartbeat CPU 0 instructions: 150000002 cycles: 52615449 heartbeat IPC: 2.85088 cumulative IPC: 2.85087 (Simulation time: 0 hr 7 min 33 sec) 
Heartbeat CPU 0 instructions: 160000002 cycles: 56123137 heartbeat IPC: 2.85088 cumulative IPC: 2.85087 (Simulation time: 0 hr 8 min 3 sec) 
Heartbeat CPU 0 instructions: 170000000 cycles: 59630868 heartbeat IPC: 2.85085 cumulative IPC: 2.85087 (Simulation time: 0 hr 8 min 33 sec) 
Heartbeat CPU 0 instructions: 180000000 cycles: 63138554 heartbeat IPC: 2.85088 cumulative IPC: 2.85087 (Simulation time: 0 hr 9 min 3 sec) 
Heartbeat CPU 0 instructions: 190000004 cycles: 66646238 heartbeat IPC: 2.85089 cumulative IPC: 2.85087 (Simulation time: 0 hr 9 min 33 sec) 
Heartbeat CPU 0 instructions: 200000004 cycles: 70153924 heartbeat IPC: 2.85088 cumulative IPC: 2.85087 (Simulation time: 0 hr 10 min 3 sec) 

Warmup complete CPU 0 instructions: 200000004 cycles: 70153924 (Simulation time: 0 hr 10 min 3 sec) 

Heartbeat CPU 0 instructions: 210000003 cycles: 77725185 heartbeat IPC: 1.32078 cumulative IPC: 1.32078 (Simulation time: 0 hr 10 min 53 sec) 
Heartbeat CPU 0 instructions: 220000002 cycles: 85297876 heartbeat IPC: 1.32053 cumulative IPC: 1.32066 (Simulation time: 0 hr 11 min 43 sec) 
Heartbeat CPU 0 instructions: 230000000 cycles: 92858002 heartbeat IPC: 1.32273 cumulative IPC: 1.32135 (Simulation time: 0 hr 12 min 33 sec) 
Heartbeat CPU 0 instructions: 240000004 cycles: 100415483 heartbeat IPC: 1.32319 cumulative IPC: 1.32181 (Simulation time: 0 hr 13 min 23 sec) 
Heartbeat CPU 0 instructions: 250000001 cycles: 107984067 heartbeat IPC: 1.32125 cumulative IPC: 1.3217 (Simulation time: 0 hr 14 min 13 sec) 
Heartbeat CPU 0 instructions: 260000003 cycles: 115563405 heartbeat IPC: 1.31938 cumulative IPC: 1.32131 (Simulation time: 0 hr 15 min 3 sec) 
Heartbeat CPU 0 instructions: 270000002 cycles: 123234174 heartbeat IPC: 1.30365 cumulative IPC: 1.31876 (Simulation time: 0 hr 15 min 50 sec) 
Heartbeat CPU 0 instructions: 280000003 cycles: 130818055 heartbeat IPC: 1.31859 cumulative IPC: 1.31874 (Simulation time: 0 hr 16 min 35 sec) 
Heartbeat CPU 0 instructions: 290000004 cycles: 138396245 heartbeat IPC: 1.31958 cumulative IPC: 1.31883 (Simulation time: 0 hr 17 min 25 sec) 
Heartbeat CPU 0 instructions: 300000001 cycles: 145973194 heartbeat IPC: 1.31979 cumulative IPC: 1.31893 (Simulation time: 0 hr 18 min 15 sec) 
Heartbeat CPU 0 instructions: 310000004 cycles: 153541624 heartbeat IPC: 1.32128 cumulative IPC: 1.31914 (Simulation time: 0 hr 19 min 5 sec) 
Heartbeat CPU 0 instructions: 320000003 cycles: 161130962 heartbeat IPC: 1.31764 cumulative IPC: 1.31901 (Simulation time: 0 hr 19 min 55 sec) 
Heartbeat CPU 0 instructions: 330000004 cycles: 168711163 heartbeat IPC: 1.31923 cumulative IPC: 1.31903 (Simulation time: 0 hr 20 min 44 sec) 
Heartbeat CPU 0 instructions: 340000003 cycles: 176285523 heartbeat IPC: 1.32024 cumulative IPC: 1.31912 (Simulation time: 0 hr 21 min 34 sec) 
Heartbeat CPU 0 instructions: 350000002 cycles: 183870931 heartbeat IPC: 1.31832 cumulative IPC: 1.31906 (Simulation time: 0 hr 22 min 24 sec) 
Heartbeat CPU 0 instructions: 360000000 cycles: 191439501 heartbeat IPC: 1.32125 cumulative IPC: 1.3192 (Simulation time: 0 hr 23 min 14 sec) 
Heartbeat CPU 0 instructions: 370000003 cycles: 199024196 heartbeat IPC: 1.31844 cumulative IPC: 1.31916 (Simulation time: 0 hr 24 min 4 sec) 
Heartbeat CPU 0 instructions: 380000001 cycles: 206583847 heartbeat IPC: 1.32281 cumulative IPC: 1.31936 (Simulation time: 0 hr 24 min 55 sec) 
Heartbeat CPU 0 instructions: 390000004 cycles: 214158226 heartbeat IPC: 1.32024 cumulative IPC: 1.31941 (Simulation time: 0 hr 25 min 44 sec) 
Heartbeat CPU 0 instructions: 400000004 cycles: 221734914 heartbeat IPC: 1.31984 cumulative IPC: 1.31943 (Simulation time: 0 hr 26 min 34 sec) 
Heartbeat CPU 0 instructions: 410000002 cycles: 229308509 heartbeat IPC: 1.32038 cumulative IPC: 1.31947 (Simulation time: 0 hr 27 min 24 sec) 
Heartbeat CPU 0 instructions: 420000004 cycles: 236868244 heartbeat IPC: 1.3228 cumulative IPC: 1.31962 (Simulation time: 0 hr 28 min 14 sec) 
Heartbeat CPU 0 instructions: 430000002 cycles: 244438836 heartbeat IPC: 1.3209 cumulative IPC: 1.31968 (Simulation time: 0 hr 29 min 4 sec) 
Heartbeat CPU 0 instructions: 440000000 cycles: 252015791 heartbeat IPC: 1.31979 cumulative IPC: 1.31968 (Simulation time: 0 hr 29 min 54 sec) 
Heartbeat CPU 0 instructions: 450000004 cycles: 259584212 heartbeat IPC: 1.32128 cumulative IPC: 1.31975 (Simulation time: 0 hr 30 min 44 sec) 
Heartbeat CPU 0 instructions: 460000003 cycles: 267165779 heartbeat IPC: 1.31899 cumulative IPC: 1.31972 (Simulation time: 0 hr 31 min 34 sec) 
Heartbeat CPU 0 instructions: 470000000 cycles: 274749270 heartbeat IPC: 1.31865 cumulative IPC: 1.31968 (Simulation time: 0 hr 32 min 25 sec) 
Heartbeat CPU 0 instructions: 480000003 cycles: 282321190 heartbeat IPC: 1.32067 cumulative IPC: 1.31971 (Simulation time: 0 hr 33 min 15 sec) 
Heartbeat CPU 0 instructions: 490000002 cycles: 289890435 heartbeat IPC: 1.32114 cumulative IPC: 1.31976 (Simulation time: 0 hr 34 min 4 sec) 
Heartbeat CPU 0 instructions: 500000004 cycles: 297459222 heartbeat IPC: 1.32122 cumulative IPC: 1.31981 (Simulation time: 0 hr 34 min 54 sec) 
Heartbeat CPU 0 instructions: 510000000 cycles: 305032987 heartbeat IPC: 1.32035 cumulative IPC: 1.31983 (Simulation time: 0 hr 35 min 44 sec) 
Heartbeat CPU 0 instructions: 520000002 cycles: 312608097 heartbeat IPC: 1.32011 cumulative IPC: 1.31984 (Simulation time: 0 hr 36 min 34 sec) 
Heartbeat CPU 0 instructions: 530000000 cycles: 320189779 heartbeat IPC: 1.31897 cumulative IPC: 1.31981 (Simulation time: 0 hr 37 min 24 sec) 
Heartbeat CPU 0 instructions: 540000003 cycles: 327758834 heartbeat IPC: 1.32117 cumulative IPC: 1.31985 (Simulation time: 0 hr 38 min 14 sec) 
Heartbeat CPU 0 instructions: 550000000 cycles: 335330782 heartbeat IPC: 1.32066 cumulative IPC: 1.31987 (Simulation time: 0 hr 39 min 4 sec) 
Heartbeat CPU 0 instructions: 560000000 cycles: 342904061 heartbeat IPC: 1.32043 cumulative IPC: 1.31989 (Simulation time: 0 hr 39 min 54 sec) 
Heartbeat CPU 0 instructions: 570000002 cycles: 350483866 heartbeat IPC: 1.3193 cumulative IPC: 1.31987 (Simulation time: 0 hr 40 min 44 sec) 
Heartbeat CPU 0 instructions: 580000003 cycles: 358063389 heartbeat IPC: 1.31934 cumulative IPC: 1.31986 (Simulation time: 0 hr 41 min 34 sec) 
Heartbeat CPU 0 instructions: 590000003 cycles: 365649941 heartbeat IPC: 1.31812 cumulative IPC: 1.31981 (Simulation time: 0 hr 42 min 24 sec) 
Heartbeat CPU 0 instructions: 600000001 cycles: 373213729 heartbeat IPC: 1.32209 cumulative IPC: 1.31987 (Simulation time: 0 hr 43 min 14 sec) 
Heartbeat CPU 0 instructions: 610000004 cycles: 380782989 heartbeat IPC: 1.32113 cumulative IPC: 1.3199 (Simulation time: 0 hr 44 min 4 sec) 
Heartbeat CPU 0 instructions: 620000004 cycles: 388353595 heartbeat IPC: 1.3209 cumulative IPC: 1.31993 (Simulation time: 0 hr 44 min 54 sec) 
Heartbeat CPU 0 instructions: 630000002 cycles: 395931811 heartbeat IPC: 1.31957 cumulative IPC: 1.31992 (Simulation time: 0 hr 45 min 44 sec) 
Heartbeat CPU 0 instructions: 640000001 cycles: 403509435 heartbeat IPC: 1.31967 cumulative IPC: 1.31991 (Simulation time: 0 hr 46 min 34 sec) 
Heartbeat CPU 0 instructions: 650000003 cycles: 411081968 heartbeat IPC: 1.32056 cumulative IPC: 1.31993 (Simulation time: 0 hr 47 min 24 sec) 
Heartbeat CPU 0 instructions: 660000001 cycles: 418661944 heartbeat IPC: 1.31927 cumulative IPC: 1.31991 (Simulation time: 0 hr 48 min 14 sec) 
Heartbeat CPU 0 instructions: 670000000 cycles: 426234278 heartbeat IPC: 1.3206 cumulative IPC: 1.31993 (Simulation time: 0 hr 49 min 4 sec) 
Heartbeat CPU 0 instructions: 680000004 cycles: 433798756 heartbeat IPC: 1.32197 cumulative IPC: 1.31997 (Simulation time: 0 hr 49 min 54 sec) 
Heartbeat CPU 0 instructions: 690000001 cycles: 441365612 heartbeat IPC: 1.32155 cumulative IPC: 1.32 (Simulation time: 0 hr 50 min 44 sec) 
Heartbeat CPU 0 instructions: 700000001 cycles: 448933542 heartbeat IPC: 1.32137 cumulative IPC: 1.32003 (Simulation time: 0 hr 51 min 33 sec) 
Finished CPU 0 instructions: 500000002 cycles: 378779619 cumulative IPC: 1.32003 (Simulation time: 0 hr 51 min 33 sec) 

ChampSim completed all CPUs

Region of Interest Statistics

CPU 0 cumulative IPC: 1.32003 instructions: 500000002 cycles: 378779619
cpu0_L1I TOTAL     ACCESS:     393788  HIT:     393511  MISS:        277
cpu0_L1I LOAD      ACCESS:     393788  HIT:     393511  MISS:        277
cpu0_L1I RFO       ACCESS:          0  HIT:          0  MISS:          0
cpu0_L1I PREFETCH  ACCESS:          0  HIT:          0  MISS:          0
cpu0_L1I WRITEBACK ACCESS:          0  HIT:          0  MISS:          0
cpu0_L1I TRANSLATION ACCESS:          0  HIT:          0  MISS:          0
cpu0_L1I PREFETCH  REQUESTED:          0  ISSUED:          0  USEFUL:          0  USELESS:          0
cpu0_L1I AVERAGE MISS LATENCY: 143.271 cycles
cpu0_DTLB TOTAL     ACCESS:   85564594  HIT:   85496171  MISS:      68423
cpu0_DTLB LOAD      ACCESS:   74476005  HIT:   74407596  MISS:      68409
cpu0_DTLB RFO       ACCESS:   11088589  HIT:   11088575  MISS:         14
cpu0_DTLB PREFETCH  ACCESS:          0  HIT:          0  MISS:          0
cpu0_DTLB WRITEBACK ACCESS:          0  HIT:          0  MISS:          0
cpu0_DTLB TRANSLATION ACCESS:          0  HIT:          0  MISS:          0
cpu0_DTLB PREFETCH  REQUESTED:          0  ISSUED:          0  USEFUL:          0  USELESS:          0
cpu0_DTLB AVERAGE MISS LATENCY: 216.354 cycles
cpu0_ITLB TOTAL     ACCESS:     359456  HIT:     359445  MISS:         11
cpu0_ITLB LOAD      ACCESS:     359456  HIT:     359445  MISS:         11
cpu0_ITLB RFO       ACCESS:          0  HIT:          0  MISS:          0
cpu0_ITLB PREFETCH  ACCESS:          0  HIT:          0  MISS:          0
cpu0_ITLB WRITEBACK ACCESS:          0  HIT:          0  MISS:          0
cpu0_ITLB TRANSLATION ACCESS:          0  HIT:          0  MISS:          0
cpu0_ITLB PREFETCH  REQUESTED:          0  ISSUED:          0  USEFUL:          0  USELESS:          0
cpu0_ITLB AVERAGE MISS LATENCY: 203.636 cycles
cpu0_STLB TOTAL     ACCESS:      68434  HIT:        256  MISS:      68178
cpu0_STLB LOAD      ACCESS:      68420  HIT:        243  MISS:      68177
cpu0_STLB RFO       ACCESS:         14  HIT:         13  MISS:          1
cpu0_STLB PREFETCH  ACCESS:          0  HIT:          0  MISS:          0
cpu0_STLB WRITEBACK ACCESS:          0  HIT:          0  MISS:          0
cpu0_STLB TRANSLATION ACCESS:          0  HIT:          0  MISS:          0
cpu0_STLB PREFETCH  REQUESTED:          0  ISSUED:          0  USEFUL:          0  USELESS:          0
cpu0_STLB AVERAGE MISS LATENCY: 208.13 cycles
cpu0_L1D TOTAL     ACCESS:  107340833  HIT:  102985867  MISS:    4354966
cpu0_L1D LOAD      ACCESS:   72082666  HIT:   67727834  MISS:    4354832
cpu0_L1D RFO       ACCESS:   35189991  HIT:   35189985  MISS:          6
cpu0_L1D PREFETCH  ACCESS:          0  HIT:          0  MISS:          0
cpu0_L1D WRITEBACK ACCESS:          0  HIT:          0  MISS:          0
cpu0_L1D TRANSLATION ACCESS:      68176  HIT:      68048  MISS:        128
cpu0_L1D PREFETCH  REQUESTED:          0  ISSUED:          0  USEFUL:          0  USELESS:          0
cpu0_L1D AVERAGE MISS LATENCY: 200.521 cycles
cpu0_L2C TOTAL     ACCESS:    8707601  HIT:    4352904  MISS:    4354697
cpu0_L2C LOAD      ACCESS:    4355109  HIT:        451  MISS:    4354658
cpu0_L2C RFO       ACCESS:          6  HIT:          0  MISS:          6
cpu0_L2C PREFETCH  ACCESS:          0  HIT:          0  MISS:          0
cpu0_L2C WRITEBACK ACCESS:    4352358  HIT:    4352358  MISS:          0
cpu0_L2C TRANSLATION ACCESS:        128  HIT:         95  MISS:         33
cpu0_L2C PREFETCH  REQUESTED:          0  ISSUED:          0  USEFUL:          0  USELESS:          0
cpu0_L2C AVERAGE MISS LATENCY: 189.521 cycles
LLC TOTAL     ACCESS:    9581403  HIT:     806592  MISS:    8774811
LLC LOAD      ACCESS:    4354658  HIT:     806517  MISS:    3548141
LLC RFO       ACCESS:          6  HIT:          0  MISS:          6
LLC PREFETCH  ACCESS:     875581  HIT:         68  MISS:     875513
LLC WRITEBACK ACCESS:    4351125  HIT:          7  MISS:    4351118
LLC TRANSLATION ACCESS:         33  HIT:          0  MISS:         33
LLC PREFETCH  REQUESTED:    4354658  ISSUED:    4354658  USEFUL:    3341959  USELESS:      69000
LLC AVERAGE MISS LATENCY: 39.7473 cycles

DRAM Statistics
 CHANNEL 0
 RQ ROW_BUFFER_HIT:     234124  ROW_BUFFER_MISS:    4189569
 DBUS AVG_CONGESTED_CYCLE:     3.9453
 WQ ROW_BUFFER_HIT:     704269  ROW_BUFFER_MISS:    3646804  FULL:          0


CPU 0 Branch Prediction Accuracy: 99.7822% MPKI: 0.040302 Average ROB Occupancy at Mispredict: 157.463
Branch type MPKI
BRANCH_DIRECT_JUMP: 0.000178
BRANCH_INDIRECT: 0
BRANCH_CONDITIONAL: 0.04006
BRANCH_DIRECT_CALL: 3.2e-05
BRANCH_INDIRECT_CALL: 0
BRANCH_RETURN: 3.2e-05

