/home/caslab/workspace/sim/ChampSim/bin/champsim --warmup_instructions 200000000 --simulation_instructions 500000000/ /home/caslab/workspace/sim/traces/speccpu_by_champsim654.roms_s-1390B.champsimtrace.xz
start simulation for 654.roms_s-1390B.champsimtrace.xz

*** ChampSim Multicore Out-of-Order Simulator ***

Warmup Instructions: 200000000
Simulation Instructions: 500000000
Number of CPUs: 1
Off-chip DRAM Size: 4 GiB Channels: 1 Width: 64-bit Data Rate: 3200 MT/s

VirtualMemory physical capacity: 8588881920 num_ppages: 2096895
VirtualMemory page size: 4096 log2_page_size: 12

CPU 0 runs /home/caslab/workspace/sim/traces/speccpu_by_champsim/654.roms_s-1390B.champsimtrace.xz
CPU 0 Bimodal branch predictor
Basic BTB sets: 1024 ways: 8 indirect buffer size: 4096 RAS size: 64
LLC next line prefetcher
WARNING: The extended signature CACHE::prefetch_line(ip, base_addr, pf_addr, fill_this_level, prefetch_metadata) is deprecated.
WARNING: Use CACHE::prefetch_line(pf_addr, fill_this_level, prefetch_metadata) instead.
Heartbeat CPU 0 instructions: 10000000 cycles: 5634033 heartbeat IPC: 1.77493 cumulative IPC: 1.77493 (Simulation time: 0 hr 1 min 5 sec) 
Heartbeat CPU 0 instructions: 20000001 cycles: 9324713 heartbeat IPC: 2.70953 cumulative IPC: 2.14484 (Simulation time: 0 hr 1 min 41 sec) 
Heartbeat CPU 0 instructions: 30000001 cycles: 12598206 heartbeat IPC: 3.05484 cumulative IPC: 2.38129 (Simulation time: 0 hr 2 min 10 sec) 
Heartbeat CPU 0 instructions: 40000000 cycles: 16968788 heartbeat IPC: 2.28802 cumulative IPC: 2.35727 (Simulation time: 0 hr 2 min 58 sec) 
Heartbeat CPU 0 instructions: 50000002 cycles: 21922757 heartbeat IPC: 2.01858 cumulative IPC: 2.28074 (Simulation time: 0 hr 3 min 53 sec) 
Heartbeat CPU 0 instructions: 60000002 cycles: 24422939 heartbeat IPC: 3.99971 cumulative IPC: 2.45671 (Simulation time: 0 hr 4 min 11 sec) 
Heartbeat CPU 0 instructions: 70000002 cycles: 26922939 heartbeat IPC: 4 cumulative IPC: 2.60001 (Simulation time: 0 hr 4 min 30 sec) 
Heartbeat CPU 0 instructions: 80000002 cycles: 29422939 heartbeat IPC: 4 cumulative IPC: 2.71897 (Simulation time: 0 hr 4 min 49 sec) 
Heartbeat CPU 0 instructions: 90000000 cycles: 33599884 heartbeat IPC: 2.39409 cumulative IPC: 2.67858 (Simulation time: 0 hr 5 min 29 sec) 
Heartbeat CPU 0 instructions: 100000001 cycles: 37319175 heartbeat IPC: 2.68868 cumulative IPC: 2.67959 (Simulation time: 0 hr 6 min 3 sec) 
Heartbeat CPU 0 instructions: 110000001 cycles: 40414925 heartbeat IPC: 3.23024 cumulative IPC: 2.72177 (Simulation time: 0 hr 6 min 29 sec) 
Heartbeat CPU 0 instructions: 120000001 cycles: 42914925 heartbeat IPC: 4 cumulative IPC: 2.79623 (Simulation time: 0 hr 6 min 47 sec) 
Heartbeat CPU 0 instructions: 130000003 cycles: 45415115 heartbeat IPC: 3.9997 cumulative IPC: 2.86248 (Simulation time: 0 hr 7 min 5 sec) 
Heartbeat CPU 0 instructions: 140000001 cycles: 50374806 heartbeat IPC: 2.01625 cumulative IPC: 2.77917 (Simulation time: 0 hr 7 min 59 sec) 
Heartbeat CPU 0 instructions: 150000003 cycles: 54651711 heartbeat IPC: 2.33814 cumulative IPC: 2.74465 (Simulation time: 0 hr 8 min 44 sec) 
Heartbeat CPU 0 instructions: 160000000 cycles: 61481268 heartbeat IPC: 1.46422 cumulative IPC: 2.60242 (Simulation time: 0 hr 10 min 16 sec) 
Heartbeat CPU 0 instructions: 170000000 cycles: 68377176 heartbeat IPC: 1.45014 cumulative IPC: 2.48621 (Simulation time: 0 hr 11 min 48 sec) 
Heartbeat CPU 0 instructions: 180000003 cycles: 75228085 heartbeat IPC: 1.45966 cumulative IPC: 2.39272 (Simulation time: 0 hr 13 min 19 sec) 
Heartbeat CPU 0 instructions: 190000001 cycles: 79147285 heartbeat IPC: 2.55154 cumulative IPC: 2.40059 (Simulation time: 0 hr 13 min 58 sec) 
Heartbeat CPU 0 instructions: 200000000 cycles: 81780551 heartbeat IPC: 3.79756 cumulative IPC: 2.44557 (Simulation time: 0 hr 14 min 21 sec) 

Warmup complete CPU 0 instructions: 200000005 cycles: 81780552 (Simulation time: 0 hr 14 min 21 sec) 

Heartbeat CPU 0 instructions: 210000001 cycles: 90813556 heartbeat IPC: 1.10705 cumulative IPC: 1.10705 (Simulation time: 0 hr 15 min 29 sec) 
Heartbeat CPU 0 instructions: 220000001 cycles: 98754661 heartbeat IPC: 1.25927 cumulative IPC: 1.17826 (Simulation time: 0 hr 16 min 27 sec) 
Heartbeat CPU 0 instructions: 230000000 cycles: 108628863 heartbeat IPC: 1.01274 cumulative IPC: 1.11739 (Simulation time: 0 hr 17 min 27 sec) 
Heartbeat CPU 0 instructions: 240000000 cycles: 120152141 heartbeat IPC: 0.867809 cumulative IPC: 1.04244 (Simulation time: 0 hr 18 min 31 sec) 
Heartbeat CPU 0 instructions: 250000002 cycles: 134696004 heartbeat IPC: 0.687575 cumulative IPC: 0.944903 (Simulation time: 0 hr 19 min 45 sec) 
Heartbeat CPU 0 instructions: 260000004 cycles: 146741012 heartbeat IPC: 0.83022 cumulative IPC: 0.923639 (Simulation time: 0 hr 20 min 47 sec) 
Heartbeat CPU 0 instructions: 270000000 cycles: 149402878 heartbeat IPC: 3.75676 cumulative IPC: 1.03516 (Simulation time: 0 hr 21 min 11 sec) 
Heartbeat CPU 0 instructions: 280000003 cycles: 152110184 heartbeat IPC: 3.69371 cumulative IPC: 1.1375 (Simulation time: 0 hr 21 min 34 sec) 
Heartbeat CPU 0 instructions: 290000004 cycles: 156649124 heartbeat IPC: 2.20316 cumulative IPC: 1.20211 (Simulation time: 0 hr 22 min 8 sec) 
Heartbeat CPU 0 instructions: 300000000 cycles: 163824607 heartbeat IPC: 1.39363 cumulative IPC: 1.21886 (Simulation time: 0 hr 23 min 8 sec) 
Heartbeat CPU 0 instructions: 310000004 cycles: 166964329 heartbeat IPC: 3.185 cumulative IPC: 1.29133 (Simulation time: 0 hr 23 min 41 sec) 
Heartbeat CPU 0 instructions: 320000000 cycles: 170455278 heartbeat IPC: 2.86455 cumulative IPC: 1.35326 (Simulation time: 0 hr 24 min 11 sec) 
Heartbeat CPU 0 instructions: 330000002 cycles: 172986917 heartbeat IPC: 3.95001 cumulative IPC: 1.42534 (Simulation time: 0 hr 24 min 31 sec) 
Heartbeat CPU 0 instructions: 340000002 cycles: 175905914 heartbeat IPC: 3.42583 cumulative IPC: 1.48738 (Simulation time: 0 hr 25 min 2 sec) 
Heartbeat CPU 0 instructions: 350000000 cycles: 191987497 heartbeat IPC: 0.621829 cumulative IPC: 1.36108 (Simulation time: 0 hr 26 min 34 sec) 
Heartbeat CPU 0 instructions: 360000004 cycles: 205512601 heartbeat IPC: 0.739366 cumulative IPC: 1.29312 (Simulation time: 0 hr 27 min 51 sec) 
Heartbeat CPU 0 instructions: 370000002 cycles: 229507226 heartbeat IPC: 0.41676 cumulative IPC: 1.15077 (Simulation time: 0 hr 29 min 57 sec) 
Heartbeat CPU 0 instructions: 380000002 cycles: 248995255 heartbeat IPC: 0.513136 cumulative IPC: 1.07646 (Simulation time: 0 hr 31 min 47 sec) 
Heartbeat CPU 0 instructions: 390000000 cycles: 263379030 heartbeat IPC: 0.695228 cumulative IPC: 1.04626 (Simulation time: 0 hr 33 min 18 sec) 
Heartbeat CPU 0 instructions: 400000002 cycles: 266459715 heartbeat IPC: 3.24603 cumulative IPC: 1.08296 (Simulation time: 0 hr 33 min 48 sec) 
Heartbeat CPU 0 instructions: 410000000 cycles: 280414328 heartbeat IPC: 0.716609 cumulative IPC: 1.05722 (Simulation time: 0 hr 35 min 4 sec) 
Heartbeat CPU 0 instructions: 420000002 cycles: 292229204 heartbeat IPC: 0.846391 cumulative IPC: 1.04539 (Simulation time: 0 hr 36 min 22 sec) 
Heartbeat CPU 0 instructions: 430000000 cycles: 303249156 heartbeat IPC: 0.907445 cumulative IPC: 1.03852 (Simulation time: 0 hr 37 min 36 sec) 
Heartbeat CPU 0 instructions: 440000002 cycles: 319310325 heartbeat IPC: 0.62262 cumulative IPC: 1.0104 (Simulation time: 0 hr 38 min 59 sec) 
Heartbeat CPU 0 instructions: 450000000 cycles: 336366087 heartbeat IPC: 0.586312 cumulative IPC: 0.981988 (Simulation time: 0 hr 40 min 20 sec) 
Heartbeat CPU 0 instructions: 460000003 cycles: 355530750 heartbeat IPC: 0.521794 cumulative IPC: 0.949771 (Simulation time: 0 hr 41 min 49 sec) 
Heartbeat CPU 0 instructions: 470000001 cycles: 367289762 heartbeat IPC: 0.850411 cumulative IPC: 0.945679 (Simulation time: 0 hr 42 min 48 sec) 
Heartbeat CPU 0 instructions: 480000001 cycles: 369977881 heartbeat IPC: 3.72007 cumulative IPC: 0.971557 (Simulation time: 0 hr 43 min 12 sec) 
Heartbeat CPU 0 instructions: 490000003 cycles: 372664864 heartbeat IPC: 3.72165 cumulative IPC: 0.99696 (Simulation time: 0 hr 43 min 36 sec) 
Heartbeat CPU 0 instructions: 500000003 cycles: 377877532 heartbeat IPC: 1.9184 cumulative IPC: 1.01318 (Simulation time: 0 hr 44 min 14 sec) 
Heartbeat CPU 0 instructions: 510000004 cycles: 383670759 heartbeat IPC: 1.72615 cumulative IPC: 1.02686 (Simulation time: 0 hr 45 min 8 sec) 
Heartbeat CPU 0 instructions: 520000000 cycles: 386903930 heartbeat IPC: 3.09294 cumulative IPC: 1.04876 (Simulation time: 0 hr 45 min 41 sec) 
Heartbeat CPU 0 instructions: 530000002 cycles: 390010483 heartbeat IPC: 3.219 cumulative IPC: 1.07063 (Simulation time: 0 hr 46 min 8 sec) 
Heartbeat CPU 0 instructions: 540000002 cycles: 392540485 heartbeat IPC: 3.95257 cumulative IPC: 1.09409 (Simulation time: 0 hr 46 min 30 sec) 
Heartbeat CPU 0 instructions: 550000002 cycles: 396663692 heartbeat IPC: 2.4253 cumulative IPC: 1.11152 (Simulation time: 0 hr 47 min 6 sec) 
Heartbeat CPU 0 instructions: 560000001 cycles: 411270818 heartbeat IPC: 0.684597 cumulative IPC: 1.0926 (Simulation time: 0 hr 48 min 32 sec) 
Heartbeat CPU 0 instructions: 570000001 cycles: 427287252 heartbeat IPC: 0.624359 cumulative IPC: 1.07089 (Simulation time: 0 hr 50 min 0 sec) 
Heartbeat CPU 0 instructions: 580000000 cycles: 450414492 heartbeat IPC: 0.432391 cumulative IPC: 1.03083 (Simulation time: 0 hr 52 min 3 sec) 
Heartbeat CPU 0 instructions: 590000001 cycles: 469761191 heartbeat IPC: 0.516884 cumulative IPC: 1.0052 (Simulation time: 0 hr 53 min 53 sec) 
Heartbeat CPU 0 instructions: 600000002 cycles: 482244544 heartbeat IPC: 0.801067 cumulative IPC: 0.998841 (Simulation time: 0 hr 55 min 17 sec) 
Heartbeat CPU 0 instructions: 610000001 cycles: 485227710 heartbeat IPC: 3.35214 cumulative IPC: 1.01624 (Simulation time: 0 hr 55 min 45 sec) 
Heartbeat CPU 0 instructions: 620000001 cycles: 500295413 heartbeat IPC: 0.663671 cumulative IPC: 1.00355 (Simulation time: 0 hr 57 min 7 sec) 
Heartbeat CPU 0 instructions: 630000000 cycles: 511374062 heartbeat IPC: 0.902637 cumulative IPC: 1.00095 (Simulation time: 0 hr 58 min 23 sec) 
Heartbeat CPU 0 instructions: 640000004 cycles: 523034324 heartbeat IPC: 0.857614 cumulative IPC: 0.997159 (Simulation time: 0 hr 59 min 37 sec) 
Heartbeat CPU 0 instructions: 650000004 cycles: 537284626 heartbeat IPC: 0.701739 cumulative IPC: 0.987917 (Simulation time: 1 hr 0 min 53 sec) 
Heartbeat CPU 0 instructions: 660000003 cycles: 554985772 heartbeat IPC: 0.564935 cumulative IPC: 0.972094 (Simulation time: 1 hr 2 min 17 sec) 
Heartbeat CPU 0 instructions: 670000000 cycles: 573802950 heartbeat IPC: 0.531429 cumulative IPC: 0.955241 (Simulation time: 1 hr 3 min 44 sec) 
Heartbeat CPU 0 instructions: 680000004 cycles: 583357428 heartbeat IPC: 1.04663 cumulative IPC: 0.956982 (Simulation time: 1 hr 4 min 35 sec) 
Heartbeat CPU 0 instructions: 690000002 cycles: 586036939 heartbeat IPC: 3.73202 cumulative IPC: 0.971728 (Simulation time: 1 hr 4 min 59 sec) 
Heartbeat CPU 0 instructions: 700000003 cycles: 588708532 heartbeat IPC: 3.74309 cumulative IPC: 0.986333 (Simulation time: 1 hr 5 min 22 sec) 
Finished CPU 0 instructions: 500000003 cycles: 506927981 cumulative IPC: 0.986333 (Simulation time: 1 hr 5 min 22 sec) 

ChampSim completed all CPUs

Region of Interest Statistics

CPU 0 cumulative IPC: 0.986333 instructions: 500000003 cycles: 506927981
cpu0_L1I TOTAL     ACCESS:    8862630  HIT:    8862534  MISS:         96
cpu0_L1I LOAD      ACCESS:    8862630  HIT:    8862534  MISS:         96
cpu0_L1I RFO       ACCESS:          0  HIT:          0  MISS:          0
cpu0_L1I PREFETCH  ACCESS:          0  HIT:          0  MISS:          0
cpu0_L1I WRITEBACK ACCESS:          0  HIT:          0  MISS:          0
cpu0_L1I TRANSLATION ACCESS:          0  HIT:          0  MISS:          0
cpu0_L1I PREFETCH  REQUESTED:          0  ISSUED:          0  USEFUL:          0  USELESS:          0
cpu0_L1I AVERAGE MISS LATENCY: 343.688 cycles
cpu0_DTLB TOTAL     ACCESS:  143605784  HIT:  143316416  MISS:     289368
cpu0_DTLB LOAD      ACCESS:  126660941  HIT:  126420757  MISS:     240184
cpu0_DTLB RFO       ACCESS:   16944843  HIT:   16895659  MISS:      49184
cpu0_DTLB PREFETCH  ACCESS:          0  HIT:          0  MISS:          0
cpu0_DTLB WRITEBACK ACCESS:          0  HIT:          0  MISS:          0
cpu0_DTLB TRANSLATION ACCESS:          0  HIT:          0  MISS:          0
cpu0_DTLB PREFETCH  REQUESTED:          0  ISSUED:          0  USEFUL:          0  USELESS:          0
cpu0_DTLB AVERAGE MISS LATENCY: 35.6513 cycles
cpu0_ITLB TOTAL     ACCESS:    4681446  HIT:    4681446  MISS:          0
cpu0_ITLB LOAD      ACCESS:    4681446  HIT:    4681446  MISS:          0
cpu0_ITLB RFO       ACCESS:          0  HIT:          0  MISS:          0
cpu0_ITLB PREFETCH  ACCESS:          0  HIT:          0  MISS:          0
cpu0_ITLB WRITEBACK ACCESS:          0  HIT:          0  MISS:          0
cpu0_ITLB TRANSLATION ACCESS:          0  HIT:          0  MISS:          0
cpu0_ITLB PREFETCH  REQUESTED:          0  ISSUED:          0  USEFUL:          0  USELESS:          0
cpu0_ITLB AVERAGE MISS LATENCY: -nan cycles
cpu0_STLB TOTAL     ACCESS:     289368  HIT:     118780  MISS:     170588
cpu0_STLB LOAD      ACCESS:     240184  HIT:     108392  MISS:     131792
cpu0_STLB RFO       ACCESS:      49184  HIT:      10388  MISS:      38796
cpu0_STLB PREFETCH  ACCESS:          0  HIT:          0  MISS:          0
cpu0_STLB WRITEBACK ACCESS:          0  HIT:          0  MISS:          0
cpu0_STLB TRANSLATION ACCESS:          0  HIT:          0  MISS:          0
cpu0_STLB PREFETCH  REQUESTED:          0  ISSUED:          0  USEFUL:          0  USELESS:          0
cpu0_STLB AVERAGE MISS LATENCY: 45.1634 cycles
cpu0_L1D TOTAL     ACCESS:  139454561  HIT:  126884845  MISS:   12569716
cpu0_L1D LOAD      ACCESS:  116185940  HIT:  106392492  MISS:    9793448
cpu0_L1D RFO       ACCESS:   23099166  HIT:   20323189  MISS:    2775977
cpu0_L1D PREFETCH  ACCESS:          0  HIT:          0  MISS:          0
cpu0_L1D WRITEBACK ACCESS:          0  HIT:          0  MISS:          0
cpu0_L1D TRANSLATION ACCESS:     169455  HIT:     169164  MISS:        291
cpu0_L1D PREFETCH  REQUESTED:          0  ISSUED:          0  USEFUL:          0  USELESS:          0
cpu0_L1D AVERAGE MISS LATENCY: 176.119 cycles
cpu0_L2C TOTAL     ACCESS:   16085644  HIT:   11067555  MISS:    5018089
cpu0_L2C LOAD      ACCESS:    9793544  HIT:    6509366  MISS:    3284178
cpu0_L2C RFO       ACCESS:    2775977  HIT:    1042132  MISS:    1733845
cpu0_L2C PREFETCH  ACCESS:          0  HIT:          0  MISS:          0
cpu0_L2C WRITEBACK ACCESS:    3515832  HIT:    3515828  MISS:          4
cpu0_L2C TRANSLATION ACCESS:        291  HIT:        229  MISS:         62
cpu0_L2C PREFETCH  REQUESTED:          0  ISSUED:          0  USEFUL:          0  USELESS:          0
cpu0_L2C AVERAGE MISS LATENCY: 413.522 cycles
LLC TOTAL     ACCESS:    7973853  HIT:     937608  MISS:    7036245
LLC LOAD      ACCESS:    3284178  HIT:     904453  MISS:    2379725
LLC RFO       ACCESS:    1733845  HIT:      14807  MISS:    1719038
LLC PREFETCH  ACCESS:    1012286  HIT:      18347  MISS:     993939
LLC WRITEBACK ACCESS:    1943482  HIT:          1  MISS:    1943481
LLC TRANSLATION ACCESS:         62  HIT:          0  MISS:         62
LLC PREFETCH  REQUESTED:    3284178  ISSUED:    3284178  USEFUL:    2772382  USELESS:     108959
LLC AVERAGE MISS LATENCY: 302.524 cycles

DRAM Statistics
 CHANNEL 0
 RQ ROW_BUFFER_HIT:     410838  ROW_BUFFER_MISS:    4681869
 DBUS AVG_CONGESTED_CYCLE:    3.98603
 WQ ROW_BUFFER_HIT:      19242  ROW_BUFFER_MISS:    1923107  FULL:          0


CPU 0 Branch Prediction Accuracy: 99.5208% MPKI: 0.165772 Average ROB Occupancy at Mispredict: 305.63
Branch type MPKI
BRANCH_DIRECT_JUMP: 4e-06
BRANCH_INDIRECT: 0
BRANCH_CONDITIONAL: 0.16576
BRANCH_DIRECT_CALL: 2e-06
BRANCH_INDIRECT_CALL: 0
BRANCH_RETURN: 6e-06

