/home/caslab/workspace/sim/ChampSim/bin/champsim --warmup_instructions 200000000 --simulation_instructions 500000000/ /home/caslab/workspace/sim/traces/speccpu_by_champsim654.roms_s-1007B.champsimtrace.xz
start simulation for 654.roms_s-1007B.champsimtrace.xz

*** ChampSim Multicore Out-of-Order Simulator ***

Warmup Instructions: 200000000
Simulation Instructions: 500000000
Number of CPUs: 1
Off-chip DRAM Size: 4 GiB Channels: 1 Width: 64-bit Data Rate: 3200 MT/s

VirtualMemory physical capacity: 8588881920 num_ppages: 2096895
VirtualMemory page size: 4096 log2_page_size: 12

CPU 0 runs /home/caslab/workspace/sim/traces/speccpu_by_champsim/654.roms_s-1007B.champsimtrace.xz
CPU 0 Bimodal branch predictor
Basic BTB sets: 1024 ways: 8 indirect buffer size: 4096 RAS size: 64
LLC next line prefetcher
WARNING: The extended signature CACHE::prefetch_line(ip, base_addr, pf_addr, fill_this_level, prefetch_metadata) is deprecated.
WARNING: Use CACHE::prefetch_line(pf_addr, fill_this_level, prefetch_metadata) instead.
Heartbeat CPU 0 instructions: 10000001 cycles: 2513136 heartbeat IPC: 3.97909 cumulative IPC: 3.97909 (Simulation time: 0 hr 0 min 21 sec) 
Heartbeat CPU 0 instructions: 20000003 cycles: 5026345 heartbeat IPC: 3.97898 cumulative IPC: 3.97904 (Simulation time: 0 hr 0 min 41 sec) 
Heartbeat CPU 0 instructions: 30000000 cycles: 7539403 heartbeat IPC: 3.97921 cumulative IPC: 3.97909 (Simulation time: 0 hr 1 min 1 sec) 
Heartbeat CPU 0 instructions: 40000003 cycles: 10052455 heartbeat IPC: 3.97923 cumulative IPC: 3.97913 (Simulation time: 0 hr 1 min 22 sec) 
Heartbeat CPU 0 instructions: 50000002 cycles: 13084046 heartbeat IPC: 3.2986 cumulative IPC: 3.82145 (Simulation time: 0 hr 1 min 49 sec) 
Heartbeat CPU 0 instructions: 60000000 cycles: 15791439 heartbeat IPC: 3.69359 cumulative IPC: 3.79953 (Simulation time: 0 hr 2 min 13 sec) 
Heartbeat CPU 0 instructions: 70000000 cycles: 18304649 heartbeat IPC: 3.97898 cumulative IPC: 3.82417 (Simulation time: 0 hr 2 min 34 sec) 
Heartbeat CPU 0 instructions: 80000001 cycles: 20817699 heartbeat IPC: 3.97923 cumulative IPC: 3.84288 (Simulation time: 0 hr 2 min 54 sec) 
Heartbeat CPU 0 instructions: 90000000 cycles: 23330750 heartbeat IPC: 3.97923 cumulative IPC: 3.85757 (Simulation time: 0 hr 3 min 14 sec) 
Heartbeat CPU 0 instructions: 100000000 cycles: 25843962 heartbeat IPC: 3.97897 cumulative IPC: 3.86938 (Simulation time: 0 hr 3 min 35 sec) 
Heartbeat CPU 0 instructions: 110000002 cycles: 28357017 heartbeat IPC: 3.97922 cumulative IPC: 3.87911 (Simulation time: 0 hr 3 min 56 sec) 
Heartbeat CPU 0 instructions: 120000003 cycles: 31082924 heartbeat IPC: 3.6685 cumulative IPC: 3.86064 (Simulation time: 0 hr 4 min 19 sec) 
Heartbeat CPU 0 instructions: 130000002 cycles: 34095970 heartbeat IPC: 3.3189 cumulative IPC: 3.81277 (Simulation time: 0 hr 4 min 45 sec) 
Heartbeat CPU 0 instructions: 140000002 cycles: 36609231 heartbeat IPC: 3.97889 cumulative IPC: 3.82417 (Simulation time: 0 hr 5 min 5 sec) 
Heartbeat CPU 0 instructions: 150000001 cycles: 39122235 heartbeat IPC: 3.9793 cumulative IPC: 3.83414 (Simulation time: 0 hr 5 min 25 sec) 
Heartbeat CPU 0 instructions: 160000003 cycles: 41635287 heartbeat IPC: 3.97923 cumulative IPC: 3.84289 (Simulation time: 0 hr 5 min 46 sec) 
Heartbeat CPU 0 instructions: 170000003 cycles: 44148499 heartbeat IPC: 3.97897 cumulative IPC: 3.85064 (Simulation time: 0 hr 6 min 6 sec) 
Heartbeat CPU 0 instructions: 180000003 cycles: 46661549 heartbeat IPC: 3.97923 cumulative IPC: 3.85757 (Simulation time: 0 hr 6 min 26 sec) 
Heartbeat CPU 0 instructions: 190000000 cycles: 49174599 heartbeat IPC: 3.97923 cumulative IPC: 3.86378 (Simulation time: 0 hr 6 min 47 sec) 
Heartbeat CPU 0 instructions: 200000001 cycles: 52401086 heartbeat IPC: 3.09935 cumulative IPC: 3.81671 (Simulation time: 0 hr 7 min 15 sec) 

Warmup complete CPU 0 instructions: 200000001 cycles: 52401086 (Simulation time: 0 hr 7 min 15 sec) 

Heartbeat CPU 0 instructions: 210000002 cycles: 59629172 heartbeat IPC: 1.38349 cumulative IPC: 1.38349 (Simulation time: 0 hr 7 min 57 sec) 
Heartbeat CPU 0 instructions: 220000002 cycles: 67150037 heartbeat IPC: 1.32963 cumulative IPC: 1.35603 (Simulation time: 0 hr 8 min 40 sec) 
Heartbeat CPU 0 instructions: 230000001 cycles: 74674789 heartbeat IPC: 1.32895 cumulative IPC: 1.34688 (Simulation time: 0 hr 9 min 22 sec) 
Heartbeat CPU 0 instructions: 240000001 cycles: 82199503 heartbeat IPC: 1.32895 cumulative IPC: 1.34235 (Simulation time: 0 hr 10 min 5 sec) 
Heartbeat CPU 0 instructions: 250000002 cycles: 89720951 heartbeat IPC: 1.32953 cumulative IPC: 1.33977 (Simulation time: 0 hr 10 min 48 sec) 
Heartbeat CPU 0 instructions: 260000002 cycles: 97245470 heartbeat IPC: 1.32899 cumulative IPC: 1.33796 (Simulation time: 0 hr 11 min 31 sec) 
Heartbeat CPU 0 instructions: 270000003 cycles: 104401103 heartbeat IPC: 1.3975 cumulative IPC: 1.34615 (Simulation time: 0 hr 12 min 19 sec) 
Heartbeat CPU 0 instructions: 280000000 cycles: 111582673 heartbeat IPC: 1.39245 cumulative IPC: 1.35177 (Simulation time: 0 hr 13 min 6 sec) 
Heartbeat CPU 0 instructions: 290000000 cycles: 119109182 heartbeat IPC: 1.32864 cumulative IPC: 1.34916 (Simulation time: 0 hr 13 min 49 sec) 
Heartbeat CPU 0 instructions: 300000000 cycles: 126630629 heartbeat IPC: 1.32953 cumulative IPC: 1.34717 (Simulation time: 0 hr 14 min 32 sec) 
Heartbeat CPU 0 instructions: 310000003 cycles: 134155097 heartbeat IPC: 1.329 cumulative IPC: 1.3455 (Simulation time: 0 hr 15 min 15 sec) 
Heartbeat CPU 0 instructions: 320000001 cycles: 141677944 heartbeat IPC: 1.32928 cumulative IPC: 1.34413 (Simulation time: 0 hr 15 min 58 sec) 
Heartbeat CPU 0 instructions: 330000004 cycles: 149201014 heartbeat IPC: 1.32924 cumulative IPC: 1.34298 (Simulation time: 0 hr 16 min 40 sec) 
Heartbeat CPU 0 instructions: 340000001 cycles: 156304082 heartbeat IPC: 1.40784 cumulative IPC: 1.34741 (Simulation time: 0 hr 17 min 23 sec) 
Heartbeat CPU 0 instructions: 350000003 cycles: 160723128 heartbeat IPC: 2.26293 cumulative IPC: 1.38476 (Simulation time: 0 hr 18 min 1 sec) 
Heartbeat CPU 0 instructions: 360000000 cycles: 165792157 heartbeat IPC: 1.97276 cumulative IPC: 1.41105 (Simulation time: 0 hr 18 min 36 sec) 
Heartbeat CPU 0 instructions: 370000002 cycles: 170863363 heartbeat IPC: 1.97192 cumulative IPC: 1.43506 (Simulation time: 0 hr 19 min 11 sec) 
Heartbeat CPU 0 instructions: 380000004 cycles: 175937452 heartbeat IPC: 1.9708 cumulative IPC: 1.45706 (Simulation time: 0 hr 19 min 47 sec) 
Heartbeat CPU 0 instructions: 390000000 cycles: 181847749 heartbeat IPC: 1.69196 cumulative IPC: 1.46779 (Simulation time: 0 hr 20 min 28 sec) 
Heartbeat CPU 0 instructions: 400000003 cycles: 190405102 heartbeat IPC: 1.16859 cumulative IPC: 1.44923 (Simulation time: 0 hr 21 min 26 sec) 
Heartbeat CPU 0 instructions: 410000003 cycles: 196771159 heartbeat IPC: 1.57083 cumulative IPC: 1.4546 (Simulation time: 0 hr 22 min 11 sec) 
Heartbeat CPU 0 instructions: 420000003 cycles: 202928012 heartbeat IPC: 1.62421 cumulative IPC: 1.46153 (Simulation time: 0 hr 22 min 56 sec) 
Heartbeat CPU 0 instructions: 430000002 cycles: 209027707 heartbeat IPC: 1.63943 cumulative IPC: 1.46846 (Simulation time: 0 hr 23 min 46 sec) 
Heartbeat CPU 0 instructions: 440000000 cycles: 215463774 heartbeat IPC: 1.55374 cumulative IPC: 1.47183 (Simulation time: 0 hr 24 min 38 sec) 
Heartbeat CPU 0 instructions: 450000003 cycles: 221633323 heartbeat IPC: 1.62086 cumulative IPC: 1.47726 (Simulation time: 0 hr 25 min 29 sec) 
Heartbeat CPU 0 instructions: 460000004 cycles: 227807632 heartbeat IPC: 1.61961 cumulative IPC: 1.48227 (Simulation time: 0 hr 26 min 18 sec) 
Heartbeat CPU 0 instructions: 470000000 cycles: 233985987 heartbeat IPC: 1.61855 cumulative IPC: 1.48691 (Simulation time: 0 hr 27 min 8 sec) 
Heartbeat CPU 0 instructions: 480000001 cycles: 240452259 heartbeat IPC: 1.54649 cumulative IPC: 1.48896 (Simulation time: 0 hr 28 min 0 sec) 
Heartbeat CPU 0 instructions: 490000000 cycles: 246981390 heartbeat IPC: 1.5316 cumulative IPC: 1.49039 (Simulation time: 0 hr 28 min 52 sec) 
Heartbeat CPU 0 instructions: 500000004 cycles: 253202293 heartbeat IPC: 1.60748 cumulative IPC: 1.49401 (Simulation time: 0 hr 29 min 42 sec) 
Heartbeat CPU 0 instructions: 510000003 cycles: 259449396 heartbeat IPC: 1.60074 cumulative IPC: 1.49724 (Simulation time: 0 hr 30 min 32 sec) 
Heartbeat CPU 0 instructions: 520000002 cycles: 265731522 heartbeat IPC: 1.59182 cumulative IPC: 1.50002 (Simulation time: 0 hr 31 min 22 sec) 
Heartbeat CPU 0 instructions: 530000001 cycles: 272368771 heartbeat IPC: 1.50665 cumulative IPC: 1.50022 (Simulation time: 0 hr 32 min 15 sec) 
Heartbeat CPU 0 instructions: 540000002 cycles: 278694280 heartbeat IPC: 1.5809 cumulative IPC: 1.50248 (Simulation time: 0 hr 33 min 6 sec) 
Heartbeat CPU 0 instructions: 550000001 cycles: 284925028 heartbeat IPC: 1.60494 cumulative IPC: 1.50522 (Simulation time: 0 hr 33 min 56 sec) 
Heartbeat CPU 0 instructions: 560000003 cycles: 291133608 heartbeat IPC: 1.61067 cumulative IPC: 1.50796 (Simulation time: 0 hr 34 min 46 sec) 
Heartbeat CPU 0 instructions: 570000004 cycles: 297503304 heartbeat IPC: 1.56993 cumulative IPC: 1.50957 (Simulation time: 0 hr 35 min 37 sec) 
Heartbeat CPU 0 instructions: 580000001 cycles: 303992342 heartbeat IPC: 1.54106 cumulative IPC: 1.51039 (Simulation time: 0 hr 36 min 29 sec) 
Heartbeat CPU 0 instructions: 590000002 cycles: 310074550 heartbeat IPC: 1.64414 cumulative IPC: 1.51354 (Simulation time: 0 hr 37 min 19 sec) 
Heartbeat CPU 0 instructions: 600000003 cycles: 316127930 heartbeat IPC: 1.65197 cumulative IPC: 1.51672 (Simulation time: 0 hr 38 min 8 sec) 
Heartbeat CPU 0 instructions: 610000004 cycles: 322385890 heartbeat IPC: 1.59797 cumulative IPC: 1.5186 (Simulation time: 0 hr 38 min 53 sec) 
Heartbeat CPU 0 instructions: 620000004 cycles: 328736445 heartbeat IPC: 1.57467 cumulative IPC: 1.51989 (Simulation time: 0 hr 39 min 39 sec) 
Heartbeat CPU 0 instructions: 630000000 cycles: 335083782 heartbeat IPC: 1.57546 cumulative IPC: 1.52114 (Simulation time: 0 hr 40 min 24 sec) 
Heartbeat CPU 0 instructions: 640000000 cycles: 341455208 heartbeat IPC: 1.56951 cumulative IPC: 1.52221 (Simulation time: 0 hr 41 min 10 sec) 
Heartbeat CPU 0 instructions: 650000000 cycles: 347589261 heartbeat IPC: 1.63024 cumulative IPC: 1.52445 (Simulation time: 0 hr 41 min 55 sec) 
Heartbeat CPU 0 instructions: 660000001 cycles: 353666064 heartbeat IPC: 1.6456 cumulative IPC: 1.5269 (Simulation time: 0 hr 42 min 39 sec) 
Heartbeat CPU 0 instructions: 670000004 cycles: 359697038 heartbeat IPC: 1.65811 cumulative IPC: 1.52947 (Simulation time: 0 hr 43 min 22 sec) 
Heartbeat CPU 0 instructions: 680000001 cycles: 365742576 heartbeat IPC: 1.65411 cumulative IPC: 1.53188 (Simulation time: 0 hr 44 min 8 sec) 
Heartbeat CPU 0 instructions: 690000000 cycles: 371715018 heartbeat IPC: 1.67436 cumulative IPC: 1.53454 (Simulation time: 0 hr 44 min 54 sec) 
Heartbeat CPU 0 instructions: 700000001 cycles: 377707502 heartbeat IPC: 1.66876 cumulative IPC: 1.53701 (Simulation time: 0 hr 45 min 37 sec) 
Finished CPU 0 instructions: 500000000 cycles: 325306416 cumulative IPC: 1.53701 (Simulation time: 0 hr 45 min 37 sec) 

ChampSim completed all CPUs

Region of Interest Statistics

CPU 0 cumulative IPC: 1.53701 instructions: 500000000 cycles: 325306416
cpu0_L1I TOTAL     ACCESS:   42988608  HIT:   42988275  MISS:        333
cpu0_L1I LOAD      ACCESS:   42988608  HIT:   42988275  MISS:        333
cpu0_L1I RFO       ACCESS:          0  HIT:          0  MISS:          0
cpu0_L1I PREFETCH  ACCESS:          0  HIT:          0  MISS:          0
cpu0_L1I WRITEBACK ACCESS:          0  HIT:          0  MISS:          0
cpu0_L1I TRANSLATION ACCESS:          0  HIT:          0  MISS:          0
cpu0_L1I PREFETCH  REQUESTED:          0  ISSUED:          0  USEFUL:          0  USELESS:          0
cpu0_L1I AVERAGE MISS LATENCY: 190.532 cycles
cpu0_DTLB TOTAL     ACCESS:  138266416  HIT:  125020522  MISS:   13245894
cpu0_DTLB LOAD      ACCESS:  110094823  HIT:   97974107  MISS:   12120716
cpu0_DTLB RFO       ACCESS:   28171593  HIT:   27046415  MISS:    1125178
cpu0_DTLB PREFETCH  ACCESS:          0  HIT:          0  MISS:          0
cpu0_DTLB WRITEBACK ACCESS:          0  HIT:          0  MISS:          0
cpu0_DTLB TRANSLATION ACCESS:          0  HIT:          0  MISS:          0
cpu0_DTLB PREFETCH  REQUESTED:          0  ISSUED:          0  USEFUL:          0  USELESS:          0
cpu0_DTLB AVERAGE MISS LATENCY: 9.78149 cycles
cpu0_ITLB TOTAL     ACCESS:   16085238  HIT:   16085223  MISS:         15
cpu0_ITLB LOAD      ACCESS:   16085238  HIT:   16085223  MISS:         15
cpu0_ITLB RFO       ACCESS:          0  HIT:          0  MISS:          0
cpu0_ITLB PREFETCH  ACCESS:          0  HIT:          0  MISS:          0
cpu0_ITLB WRITEBACK ACCESS:          0  HIT:          0  MISS:          0
cpu0_ITLB TRANSLATION ACCESS:          0  HIT:          0  MISS:          0
cpu0_ITLB PREFETCH  REQUESTED:          0  ISSUED:          0  USEFUL:          0  USELESS:          0
cpu0_ITLB AVERAGE MISS LATENCY: 217.733 cycles
cpu0_STLB TOTAL     ACCESS:   13245909  HIT:   13205437  MISS:      40472
cpu0_STLB LOAD      ACCESS:   12120731  HIT:   12088502  MISS:      32229
cpu0_STLB RFO       ACCESS:    1125178  HIT:    1116935  MISS:       8243
cpu0_STLB PREFETCH  ACCESS:          0  HIT:          0  MISS:          0
cpu0_STLB WRITEBACK ACCESS:          0  HIT:          0  MISS:          0
cpu0_STLB TRANSLATION ACCESS:          0  HIT:          0  MISS:          0
cpu0_STLB PREFETCH  REQUESTED:          0  ISSUED:          0  USEFUL:          0  USELESS:          0
cpu0_STLB AVERAGE MISS LATENCY: 197.43 cycles
cpu0_L1D TOTAL     ACCESS:  165392259  HIT:  162889207  MISS:    2503052
cpu0_L1D LOAD      ACCESS:  117942695  HIT:  116000685  MISS:    1942010
cpu0_L1D RFO       ACCESS:   47409150  HIT:   46849268  MISS:     559882
cpu0_L1D PREFETCH  ACCESS:          0  HIT:          0  MISS:          0
cpu0_L1D WRITEBACK ACCESS:          0  HIT:          0  MISS:          0
cpu0_L1D TRANSLATION ACCESS:      40414  HIT:      39254  MISS:       1160
cpu0_L1D PREFETCH  REQUESTED:          0  ISSUED:          0  USEFUL:          0  USELESS:          0
cpu0_L1D AVERAGE MISS LATENCY: 154.866 cycles
cpu0_L2C TOTAL     ACCESS:    3078986  HIT:    1712852  MISS:    1366134
cpu0_L2C LOAD      ACCESS:    1942343  HIT:     898769  MISS:    1043574
cpu0_L2C RFO       ACCESS:     559881  HIT:     237662  MISS:     322219
cpu0_L2C PREFETCH  ACCESS:          0  HIT:          0  MISS:          0
cpu0_L2C WRITEBACK ACCESS:     575602  HIT:     575393  MISS:        209
cpu0_L2C TRANSLATION ACCESS:       1160  HIT:       1028  MISS:        132
cpu0_L2C PREFETCH  REQUESTED:          0  ISSUED:          0  USEFUL:          0  USELESS:          0
cpu0_L2C AVERAGE MISS LATENCY: 263.58 cycles
LLC TOTAL     ACCESS:    2667671  HIT:     673455  MISS:    1994216
LLC LOAD      ACCESS:    1043574  HIT:     672837  MISS:     370737
LLC RFO       ACCESS:     322219  HIT:         61  MISS:     322158
LLC PREFETCH  ACCESS:     703692  HIT:        557  MISS:     703135
LLC WRITEBACK ACCESS:     598054  HIT:          0  MISS:     598054
LLC TRANSLATION ACCESS:        132  HIT:          0  MISS:        132
LLC PREFETCH  REQUESTED:    1043574  ISSUED:    1043574  USEFUL:     973191  USELESS:      30121
LLC AVERAGE MISS LATENCY: 242.561 cycles

DRAM Statistics
 CHANNEL 0
 RQ ROW_BUFFER_HIT:      38551  ROW_BUFFER_MISS:    1357611
 DBUS AVG_CONGESTED_CYCLE:     3.9851
 WQ ROW_BUFFER_HIT:      11872  ROW_BUFFER_MISS:     580093  FULL:          0


CPU 0 Branch Prediction Accuracy: 99.7597% MPKI: 0.20243 Average ROB Occupancy at Mispredict: 239.717
Branch type MPKI
BRANCH_DIRECT_JUMP: 8e-05
BRANCH_INDIRECT: 2.4e-05
BRANCH_CONDITIONAL: 0.20208
BRANCH_DIRECT_CALL: 0.000126
BRANCH_INDIRECT_CALL: 0
BRANCH_RETURN: 0.00012

