/home/caslab/workspace/sim/ChampSim/bin/champsim --warmup_instructions 200000000 --simulation_instructions 500000000/ /home/caslab/workspace/sim/traces/speccpu_by_champsim654.roms_s-523B.champsimtrace.xz
start simulation for 654.roms_s-523B.champsimtrace.xz

*** ChampSim Multicore Out-of-Order Simulator ***

Warmup Instructions: 200000000
Simulation Instructions: 500000000
Number of CPUs: 1
Off-chip DRAM Size: 4 GiB Channels: 1 Width: 64-bit Data Rate: 3200 MT/s

VirtualMemory physical capacity: 8588881920 num_ppages: 2096895
VirtualMemory page size: 4096 log2_page_size: 12

CPU 0 runs /home/caslab/workspace/sim/traces/speccpu_by_champsim/654.roms_s-523B.champsimtrace.xz
CPU 0 Bimodal branch predictor
Basic BTB sets: 1024 ways: 8 indirect buffer size: 4096 RAS size: 64
LLC next line prefetcher
WARNING: The extended signature CACHE::prefetch_line(ip, base_addr, pf_addr, fill_this_level, prefetch_metadata) is deprecated.
WARNING: Use CACHE::prefetch_line(pf_addr, fill_this_level, prefetch_metadata) instead.
Heartbeat CPU 0 instructions: 10000001 cycles: 3119789 heartbeat IPC: 3.20535 cumulative IPC: 3.20535 (Simulation time: 0 hr 0 min 25 sec) 
Heartbeat CPU 0 instructions: 20000000 cycles: 6038396 heartbeat IPC: 3.42629 cumulative IPC: 3.31214 (Simulation time: 0 hr 0 min 47 sec) 
Heartbeat CPU 0 instructions: 30000001 cycles: 10437546 heartbeat IPC: 2.27317 cumulative IPC: 2.87424 (Simulation time: 0 hr 1 min 29 sec) 
Heartbeat CPU 0 instructions: 40000000 cycles: 13994815 heartbeat IPC: 2.81115 cumulative IPC: 2.8582 (Simulation time: 0 hr 2 min 1 sec) 
Heartbeat CPU 0 instructions: 50000001 cycles: 18438650 heartbeat IPC: 2.25031 cumulative IPC: 2.7117 (Simulation time: 0 hr 2 min 44 sec) 
Heartbeat CPU 0 instructions: 60000000 cycles: 22696617 heartbeat IPC: 2.34854 cumulative IPC: 2.64357 (Simulation time: 0 hr 3 min 25 sec) 
Heartbeat CPU 0 instructions: 70000002 cycles: 26781324 heartbeat IPC: 2.44816 cumulative IPC: 2.61376 (Simulation time: 0 hr 4 min 6 sec) 
Heartbeat CPU 0 instructions: 80000001 cycles: 30842161 heartbeat IPC: 2.46255 cumulative IPC: 2.59385 (Simulation time: 0 hr 4 min 43 sec) 
Heartbeat CPU 0 instructions: 90000003 cycles: 34008143 heartbeat IPC: 3.15858 cumulative IPC: 2.64643 (Simulation time: 0 hr 5 min 8 sec) 
Heartbeat CPU 0 instructions: 100000004 cycles: 36865745 heartbeat IPC: 3.49944 cumulative IPC: 2.71255 (Simulation time: 0 hr 5 min 30 sec) 
Heartbeat CPU 0 instructions: 110000004 cycles: 41265954 heartbeat IPC: 2.27262 cumulative IPC: 2.66564 (Simulation time: 0 hr 6 min 12 sec) 
Heartbeat CPU 0 instructions: 120000001 cycles: 44852017 heartbeat IPC: 2.78857 cumulative IPC: 2.67546 (Simulation time: 0 hr 6 min 44 sec) 
Heartbeat CPU 0 instructions: 130000002 cycles: 49260900 heartbeat IPC: 2.26815 cumulative IPC: 2.63901 (Simulation time: 0 hr 7 min 27 sec) 
Heartbeat CPU 0 instructions: 140000001 cycles: 53505835 heartbeat IPC: 2.35575 cumulative IPC: 2.61654 (Simulation time: 0 hr 8 min 8 sec) 
Heartbeat CPU 0 instructions: 150000000 cycles: 57624667 heartbeat IPC: 2.42787 cumulative IPC: 2.60305 (Simulation time: 0 hr 8 min 48 sec) 
Heartbeat CPU 0 instructions: 160000002 cycles: 61684020 heartbeat IPC: 2.46345 cumulative IPC: 2.59386 (Simulation time: 0 hr 9 min 25 sec) 
Heartbeat CPU 0 instructions: 170000001 cycles: 64896446 heartbeat IPC: 3.11291 cumulative IPC: 2.61956 (Simulation time: 0 hr 9 min 51 sec) 
Heartbeat CPU 0 instructions: 180000004 cycles: 67693043 heartbeat IPC: 3.57578 cumulative IPC: 2.65906 (Simulation time: 0 hr 10 min 11 sec) 
Heartbeat CPU 0 instructions: 190000002 cycles: 72094421 heartbeat IPC: 2.27202 cumulative IPC: 2.63543 (Simulation time: 0 hr 10 min 54 sec) 
Heartbeat CPU 0 instructions: 200000002 cycles: 75709367 heartbeat IPC: 2.76629 cumulative IPC: 2.64168 (Simulation time: 0 hr 11 min 27 sec) 

Warmup complete CPU 0 instructions: 200000002 cycles: 75709367 (Simulation time: 0 hr 11 min 27 sec) 

Heartbeat CPU 0 instructions: 210000002 cycles: 81268724 heartbeat IPC: 1.79877 cumulative IPC: 1.79877 (Simulation time: 0 hr 12 min 13 sec) 
Heartbeat CPU 0 instructions: 220000002 cycles: 87635363 heartbeat IPC: 1.57069 cumulative IPC: 1.67701 (Simulation time: 0 hr 13 min 2 sec) 
Heartbeat CPU 0 instructions: 230000002 cycles: 91905366 heartbeat IPC: 2.34192 cumulative IPC: 1.85231 (Simulation time: 0 hr 13 min 43 sec) 
Heartbeat CPU 0 instructions: 240000000 cycles: 96160028 heartbeat IPC: 2.35036 cumulative IPC: 1.95593 (Simulation time: 0 hr 14 min 26 sec) 
Heartbeat CPU 0 instructions: 250000003 cycles: 99437360 heartbeat IPC: 3.05126 cumulative IPC: 2.10722 (Simulation time: 0 hr 14 min 58 sec) 
Heartbeat CPU 0 instructions: 260000003 cycles: 102184055 heartbeat IPC: 3.64074 cumulative IPC: 2.26632 (Simulation time: 0 hr 15 min 22 sec) 
Heartbeat CPU 0 instructions: 270000000 cycles: 109878041 heartbeat IPC: 1.29972 cumulative IPC: 2.04866 (Simulation time: 0 hr 16 min 20 sec) 
Heartbeat CPU 0 instructions: 280000000 cycles: 119105900 heartbeat IPC: 1.08368 cumulative IPC: 1.84347 (Simulation time: 0 hr 17 min 20 sec) 
Heartbeat CPU 0 instructions: 290000003 cycles: 125074098 heartbeat IPC: 1.67555 cumulative IPC: 1.82316 (Simulation time: 0 hr 18 min 7 sec) 
Heartbeat CPU 0 instructions: 300000002 cycles: 131380186 heartbeat IPC: 1.58577 cumulative IPC: 1.79627 (Simulation time: 0 hr 18 min 56 sec) 
Heartbeat CPU 0 instructions: 310000002 cycles: 135752274 heartbeat IPC: 2.28724 cumulative IPC: 1.83202 (Simulation time: 0 hr 19 min 38 sec) 
Heartbeat CPU 0 instructions: 320000002 cycles: 139970340 heartbeat IPC: 2.37075 cumulative IPC: 1.86739 (Simulation time: 0 hr 20 min 22 sec) 
Heartbeat CPU 0 instructions: 330000000 cycles: 143295025 heartbeat IPC: 3.0078 cumulative IPC: 1.92348 (Simulation time: 0 hr 20 min 56 sec) 
Heartbeat CPU 0 instructions: 340000001 cycles: 145981333 heartbeat IPC: 3.72258 cumulative IPC: 1.99226 (Simulation time: 0 hr 21 min 21 sec) 
Heartbeat CPU 0 instructions: 350000004 cycles: 153733602 heartbeat IPC: 1.28995 cumulative IPC: 1.92248 (Simulation time: 0 hr 22 min 20 sec) 
Heartbeat CPU 0 instructions: 360000000 cycles: 163038354 heartbeat IPC: 1.07472 cumulative IPC: 1.83215 (Simulation time: 0 hr 23 min 20 sec) 
Heartbeat CPU 0 instructions: 370000002 cycles: 169011548 heartbeat IPC: 1.67415 cumulative IPC: 1.82204 (Simulation time: 0 hr 24 min 9 sec) 
Heartbeat CPU 0 instructions: 380000001 cycles: 175781509 heartbeat IPC: 1.47711 cumulative IPC: 1.7987 (Simulation time: 0 hr 25 min 0 sec) 
Heartbeat CPU 0 instructions: 390000002 cycles: 180200588 heartbeat IPC: 2.26292 cumulative IPC: 1.81833 (Simulation time: 0 hr 25 min 43 sec) 
Heartbeat CPU 0 instructions: 400000002 cycles: 184395120 heartbeat IPC: 2.38406 cumulative IPC: 1.84017 (Simulation time: 0 hr 26 min 25 sec) 
Heartbeat CPU 0 instructions: 410000002 cycles: 187768140 heartbeat IPC: 2.9647 cumulative IPC: 1.87402 (Simulation time: 0 hr 26 min 59 sec) 
Heartbeat CPU 0 instructions: 420000003 cycles: 190393007 heartbeat IPC: 3.80972 cumulative IPC: 1.91832 (Simulation time: 0 hr 27 min 21 sec) 
Heartbeat CPU 0 instructions: 430000004 cycles: 198484938 heartbeat IPC: 1.2358 cumulative IPC: 1.87334 (Simulation time: 0 hr 28 min 21 sec) 
Heartbeat CPU 0 instructions: 440000003 cycles: 208346147 heartbeat IPC: 1.01407 cumulative IPC: 1.80945 (Simulation time: 0 hr 29 min 23 sec) 
Heartbeat CPU 0 instructions: 450000001 cycles: 214404293 heartbeat IPC: 1.65067 cumulative IPC: 1.80252 (Simulation time: 0 hr 30 min 11 sec) 
Heartbeat CPU 0 instructions: 460000000 cycles: 221037808 heartbeat IPC: 1.5075 cumulative IPC: 1.78905 (Simulation time: 0 hr 31 min 1 sec) 
Heartbeat CPU 0 instructions: 470000002 cycles: 225510134 heartbeat IPC: 2.23597 cumulative IPC: 1.80239 (Simulation time: 0 hr 31 min 44 sec) 
Heartbeat CPU 0 instructions: 480000003 cycles: 229673977 heartbeat IPC: 2.40163 cumulative IPC: 1.8186 (Simulation time: 0 hr 32 min 26 sec) 
Heartbeat CPU 0 instructions: 490000001 cycles: 233094781 heartbeat IPC: 2.92329 cumulative IPC: 1.84261 (Simulation time: 0 hr 33 min 1 sec) 
Heartbeat CPU 0 instructions: 500000000 cycles: 235658416 heartbeat IPC: 3.90071 cumulative IPC: 1.8756 (Simulation time: 0 hr 33 min 22 sec) 
Heartbeat CPU 0 instructions: 510000002 cycles: 243231283 heartbeat IPC: 1.3205 cumulative IPC: 1.8505 (Simulation time: 0 hr 34 min 20 sec) 
Heartbeat CPU 0 instructions: 520000000 cycles: 252849838 heartbeat IPC: 1.03966 cumulative IPC: 1.80648 (Simulation time: 0 hr 35 min 21 sec) 
Heartbeat CPU 0 instructions: 530000003 cycles: 258879865 heartbeat IPC: 1.65837 cumulative IPC: 1.8016 (Simulation time: 0 hr 36 min 9 sec) 
Heartbeat CPU 0 instructions: 540000002 cycles: 265186408 heartbeat IPC: 1.58565 cumulative IPC: 1.79441 (Simulation time: 0 hr 36 min 57 sec) 
Heartbeat CPU 0 instructions: 550000002 cycles: 269711385 heartbeat IPC: 2.20996 cumulative IPC: 1.8041 (Simulation time: 0 hr 37 min 41 sec) 
Heartbeat CPU 0 instructions: 560000000 cycles: 273836390 heartbeat IPC: 2.42424 cumulative IPC: 1.81702 (Simulation time: 0 hr 38 min 23 sec) 
Heartbeat CPU 0 instructions: 570000001 cycles: 277305708 heartbeat IPC: 2.88241 cumulative IPC: 1.83535 (Simulation time: 0 hr 38 min 58 sec) 
Heartbeat CPU 0 instructions: 580000001 cycles: 279816642 heartbeat IPC: 3.98258 cumulative IPC: 1.86177 (Simulation time: 0 hr 39 min 19 sec) 
Heartbeat CPU 0 instructions: 590000003 cycles: 286925241 heartbeat IPC: 1.40675 cumulative IPC: 1.84645 (Simulation time: 0 hr 40 min 14 sec) 
Heartbeat CPU 0 instructions: 600000004 cycles: 296311120 heartbeat IPC: 1.06543 cumulative IPC: 1.81322 (Simulation time: 0 hr 41 min 14 sec) 
Heartbeat CPU 0 instructions: 610000000 cycles: 302560096 heartbeat IPC: 1.60026 cumulative IPC: 1.80736 (Simulation time: 0 hr 42 min 4 sec) 
Heartbeat CPU 0 instructions: 620000001 cycles: 308955464 heartbeat IPC: 1.56363 cumulative IPC: 1.80067 (Simulation time: 0 hr 42 min 52 sec) 
Heartbeat CPU 0 instructions: 630000002 cycles: 313591532 heartbeat IPC: 2.157 cumulative IPC: 1.80762 (Simulation time: 0 hr 43 min 36 sec) 
Heartbeat CPU 0 instructions: 640000001 cycles: 317673517 heartbeat IPC: 2.44979 cumulative IPC: 1.81845 (Simulation time: 0 hr 44 min 18 sec) 
Heartbeat CPU 0 instructions: 650000003 cycles: 321194432 heartbeat IPC: 2.84017 cumulative IPC: 1.83311 (Simulation time: 0 hr 44 min 55 sec) 
Heartbeat CPU 0 instructions: 660000000 cycles: 323705907 heartbeat IPC: 3.98172 cumulative IPC: 1.85486 (Simulation time: 0 hr 45 min 17 sec) 
Heartbeat CPU 0 instructions: 670000000 cycles: 331125162 heartbeat IPC: 1.34784 cumulative IPC: 1.84014 (Simulation time: 0 hr 46 min 14 sec) 
Heartbeat CPU 0 instructions: 680000000 cycles: 341208017 heartbeat IPC: 0.991783 cumulative IPC: 1.80792 (Simulation time: 0 hr 47 min 16 sec) 
Heartbeat CPU 0 instructions: 690000003 cycles: 347791038 heartbeat IPC: 1.51906 cumulative IPC: 1.80093 (Simulation time: 0 hr 48 min 7 sec) 
Heartbeat CPU 0 instructions: 700000001 cycles: 354708162 heartbeat IPC: 1.44569 cumulative IPC: 1.79212 (Simulation time: 0 hr 48 min 57 sec) 
Finished CPU 0 instructions: 500000004 cycles: 278998796 cumulative IPC: 1.79212 (Simulation time: 0 hr 48 min 57 sec) 

ChampSim completed all CPUs

Region of Interest Statistics

CPU 0 cumulative IPC: 1.79212 instructions: 500000004 cycles: 278998796
cpu0_L1I TOTAL     ACCESS:        699  HIT:        699  MISS:          0
cpu0_L1I LOAD      ACCESS:        699  HIT:        699  MISS:          0
cpu0_L1I RFO       ACCESS:          0  HIT:          0  MISS:          0
cpu0_L1I PREFETCH  ACCESS:          0  HIT:          0  MISS:          0
cpu0_L1I WRITEBACK ACCESS:          0  HIT:          0  MISS:          0
cpu0_L1I TRANSLATION ACCESS:          0  HIT:          0  MISS:          0
cpu0_L1I PREFETCH  REQUESTED:          0  ISSUED:          0  USEFUL:          0  USELESS:          0
cpu0_L1I AVERAGE MISS LATENCY: -nan cycles
cpu0_DTLB TOTAL     ACCESS:  134211011  HIT:  133954616  MISS:     256395
cpu0_DTLB LOAD      ACCESS:  117912405  HIT:  117701847  MISS:     210558
cpu0_DTLB RFO       ACCESS:   16298606  HIT:   16252769  MISS:      45837
cpu0_DTLB PREFETCH  ACCESS:          0  HIT:          0  MISS:          0
cpu0_DTLB WRITEBACK ACCESS:          0  HIT:          0  MISS:          0
cpu0_DTLB TRANSLATION ACCESS:          0  HIT:          0  MISS:          0
cpu0_DTLB PREFETCH  REQUESTED:          0  ISSUED:          0  USEFUL:          0  USELESS:          0
cpu0_DTLB AVERAGE MISS LATENCY: 46.5281 cycles
cpu0_ITLB TOTAL     ACCESS:    1987423  HIT:    1987423  MISS:          0
cpu0_ITLB LOAD      ACCESS:    1987423  HIT:    1987423  MISS:          0
cpu0_ITLB RFO       ACCESS:          0  HIT:          0  MISS:          0
cpu0_ITLB PREFETCH  ACCESS:          0  HIT:          0  MISS:          0
cpu0_ITLB WRITEBACK ACCESS:          0  HIT:          0  MISS:          0
cpu0_ITLB TRANSLATION ACCESS:          0  HIT:          0  MISS:          0
cpu0_ITLB PREFETCH  REQUESTED:          0  ISSUED:          0  USEFUL:          0  USELESS:          0
cpu0_ITLB AVERAGE MISS LATENCY: -nan cycles
cpu0_STLB TOTAL     ACCESS:     256395  HIT:     150447  MISS:     105948
cpu0_STLB LOAD      ACCESS:     210558  HIT:     137218  MISS:      73340
cpu0_STLB RFO       ACCESS:      45837  HIT:      13229  MISS:      32608
cpu0_STLB PREFETCH  ACCESS:          0  HIT:          0  MISS:          0
cpu0_STLB WRITEBACK ACCESS:          0  HIT:          0  MISS:          0
cpu0_STLB TRANSLATION ACCESS:          0  HIT:          0  MISS:          0
cpu0_STLB PREFETCH  REQUESTED:          0  ISSUED:          0  USEFUL:          0  USELESS:          0
cpu0_STLB AVERAGE MISS LATENCY: 90.7624 cycles
cpu0_L1D TOTAL     ACCESS:  127173252  HIT:  116004633  MISS:   11168619
cpu0_L1D LOAD      ACCESS:  105244269  HIT:   97003927  MISS:    8240342
cpu0_L1D RFO       ACCESS:   21828134  HIT:   18900087  MISS:    2928047
cpu0_L1D PREFETCH  ACCESS:          0  HIT:          0  MISS:          0
cpu0_L1D WRITEBACK ACCESS:          0  HIT:          0  MISS:          0
cpu0_L1D TRANSLATION ACCESS:     100849  HIT:     100619  MISS:        230
cpu0_L1D PREFETCH  REQUESTED:          0  ISSUED:          0  USEFUL:          0  USELESS:          0
cpu0_L1D AVERAGE MISS LATENCY: 57.0123 cycles
cpu0_L2C TOTAL     ACCESS:   14906321  HIT:   12888957  MISS:    2017364
cpu0_L2C LOAD      ACCESS:    8240342  HIT:    6688461  MISS:    1551881
cpu0_L2C RFO       ACCESS:    2928047  HIT:    2462588  MISS:     465459
cpu0_L2C PREFETCH  ACCESS:          0  HIT:          0  MISS:          0
cpu0_L2C WRITEBACK ACCESS:    3737702  HIT:    3737702  MISS:          0
cpu0_L2C TRANSLATION ACCESS:        230  HIT:        206  MISS:         24
cpu0_L2C PREFETCH  REQUESTED:          0  ISSUED:          0  USEFUL:          0  USELESS:          0
cpu0_L2C AVERAGE MISS LATENCY: 254.599 cycles
LLC TOTAL     ACCESS:    3117882  HIT:     301119  MISS:    2816763
LLC LOAD      ACCESS:    1551881  HIT:     168285  MISS:    1383596
LLC RFO       ACCESS:     465459  HIT:     122850  MISS:     342609
LLC PREFETCH  ACCESS:     223122  HIT:       9983  MISS:     213139
LLC WRITEBACK ACCESS:     877396  HIT:          1  MISS:     877395
LLC TRANSLATION ACCESS:         24  HIT:          0  MISS:         24
LLC PREFETCH  REQUESTED:    1551881  ISSUED:    1551881  USEFUL:    1215633  USELESS:      54530
LLC AVERAGE MISS LATENCY: 94.0684 cycles

DRAM Statistics
 CHANNEL 0
 RQ ROW_BUFFER_HIT:     315627  ROW_BUFFER_MISS:    1623566
 DBUS AVG_CONGESTED_CYCLE:    3.97329
 WQ ROW_BUFFER_HIT:      12564  ROW_BUFFER_MISS:     865460  FULL:          0


CPU 0 Branch Prediction Accuracy: 99.7017% MPKI: 0.192796 Average ROB Occupancy at Mispredict: 303.653
Branch type MPKI
BRANCH_DIRECT_JUMP: 0
BRANCH_INDIRECT: 0
BRANCH_CONDITIONAL: 0.192796
BRANCH_DIRECT_CALL: 0
BRANCH_INDIRECT_CALL: 0
BRANCH_RETURN: 0

