/home/caslab/workspace/sim/ChampSim/bin/champsim --warmup_instructions 200000000 --simulation_instructions 500000000/ /home/caslab/workspace/sim/traces/speccpu_by_champsim657.xz_s-4994B.champsimtrace.xz
start simulation for 657.xz_s-4994B.champsimtrace.xz

*** ChampSim Multicore Out-of-Order Simulator ***

Warmup Instructions: 200000000
Simulation Instructions: 500000000
Number of CPUs: 1
Off-chip DRAM Size: 4 GiB Channels: 1 Width: 64-bit Data Rate: 3200 MT/s

VirtualMemory physical capacity: 8588881920 num_ppages: 2096895
VirtualMemory page size: 4096 log2_page_size: 12

CPU 0 runs /home/caslab/workspace/sim/traces/speccpu_by_champsim/657.xz_s-4994B.champsimtrace.xz
CPU 0 Bimodal branch predictor
Basic BTB sets: 1024 ways: 8 indirect buffer size: 4096 RAS size: 64
LLC next line prefetcher
WARNING: The extended signature CACHE::prefetch_line(ip, base_addr, pf_addr, fill_this_level, prefetch_metadata) is deprecated.
WARNING: Use CACHE::prefetch_line(pf_addr, fill_this_level, prefetch_metadata) instead.
Heartbeat CPU 0 instructions: 10000000 cycles: 2514830 heartbeat IPC: 3.97641 cumulative IPC: 3.97641 (Simulation time: 0 hr 0 min 17 sec) 
Heartbeat CPU 0 instructions: 20000000 cycles: 5028866 heartbeat IPC: 3.97767 cumulative IPC: 3.97704 (Simulation time: 0 hr 0 min 33 sec) 
Heartbeat CPU 0 instructions: 30000003 cycles: 7547190 heartbeat IPC: 3.9709 cumulative IPC: 3.97499 (Simulation time: 0 hr 0 min 50 sec) 
Heartbeat CPU 0 instructions: 40000003 cycles: 10069231 heartbeat IPC: 3.96504 cumulative IPC: 3.9725 (Simulation time: 0 hr 1 min 7 sec) 
Heartbeat CPU 0 instructions: 50000003 cycles: 12584636 heartbeat IPC: 3.9755 cumulative IPC: 3.9731 (Simulation time: 0 hr 1 min 24 sec) 
Heartbeat CPU 0 instructions: 60000003 cycles: 15104940 heartbeat IPC: 3.96778 cumulative IPC: 3.97221 (Simulation time: 0 hr 1 min 41 sec) 
Heartbeat CPU 0 instructions: 70000000 cycles: 17621744 heartbeat IPC: 3.97329 cumulative IPC: 3.97237 (Simulation time: 0 hr 1 min 58 sec) 
Heartbeat CPU 0 instructions: 80000003 cycles: 20139458 heartbeat IPC: 3.97186 cumulative IPC: 3.9723 (Simulation time: 0 hr 2 min 15 sec) 
Heartbeat CPU 0 instructions: 90000002 cycles: 22659149 heartbeat IPC: 3.96874 cumulative IPC: 3.97191 (Simulation time: 0 hr 2 min 31 sec) 
Heartbeat CPU 0 instructions: 100000003 cycles: 25174128 heartbeat IPC: 3.97618 cumulative IPC: 3.97233 (Simulation time: 0 hr 2 min 48 sec) 
Heartbeat CPU 0 instructions: 110000001 cycles: 27690076 heartbeat IPC: 3.97464 cumulative IPC: 3.97254 (Simulation time: 0 hr 3 min 5 sec) 
Heartbeat CPU 0 instructions: 120000001 cycles: 30208795 heartbeat IPC: 3.97027 cumulative IPC: 3.97235 (Simulation time: 0 hr 3 min 22 sec) 
Heartbeat CPU 0 instructions: 130000001 cycles: 32738467 heartbeat IPC: 3.95308 cumulative IPC: 3.97086 (Simulation time: 0 hr 3 min 39 sec) 
Heartbeat CPU 0 instructions: 140000003 cycles: 35253088 heartbeat IPC: 3.97674 cumulative IPC: 3.97128 (Simulation time: 0 hr 3 min 56 sec) 
Heartbeat CPU 0 instructions: 150000003 cycles: 37799922 heartbeat IPC: 3.92644 cumulative IPC: 3.96826 (Simulation time: 0 hr 4 min 13 sec) 
Heartbeat CPU 0 instructions: 160000002 cycles: 40313601 heartbeat IPC: 3.97823 cumulative IPC: 3.96888 (Simulation time: 0 hr 4 min 29 sec) 
Heartbeat CPU 0 instructions: 170000001 cycles: 42851335 heartbeat IPC: 3.94052 cumulative IPC: 3.9672 (Simulation time: 0 hr 4 min 47 sec) 
Heartbeat CPU 0 instructions: 180000002 cycles: 45412102 heartbeat IPC: 3.90508 cumulative IPC: 3.9637 (Simulation time: 0 hr 5 min 5 sec) 
Heartbeat CPU 0 instructions: 190000002 cycles: 47998717 heartbeat IPC: 3.86606 cumulative IPC: 3.95844 (Simulation time: 0 hr 5 min 23 sec) 
Heartbeat CPU 0 instructions: 200000000 cycles: 50552387 heartbeat IPC: 3.91593 cumulative IPC: 3.95629 (Simulation time: 0 hr 5 min 41 sec) 

Warmup complete CPU 0 instructions: 200000004 cycles: 50552388 (Simulation time: 0 hr 5 min 41 sec) 

Heartbeat CPU 0 instructions: 210000001 cycles: 59231183 heartbeat IPC: 1.15223 cumulative IPC: 1.15223 (Simulation time: 0 hr 6 min 2 sec) 
Heartbeat CPU 0 instructions: 220000004 cycles: 66665571 heartbeat IPC: 1.3451 cumulative IPC: 1.24122 (Simulation time: 0 hr 6 min 21 sec) 
Heartbeat CPU 0 instructions: 230000004 cycles: 74469356 heartbeat IPC: 1.28143 cumulative IPC: 1.25434 (Simulation time: 0 hr 6 min 41 sec) 
Heartbeat CPU 0 instructions: 240000000 cycles: 83624307 heartbeat IPC: 1.0923 cumulative IPC: 1.20949 (Simulation time: 0 hr 7 min 8 sec) 
Heartbeat CPU 0 instructions: 250000002 cycles: 91546162 heartbeat IPC: 1.26233 cumulative IPC: 1.2197 (Simulation time: 0 hr 7 min 31 sec) 
Heartbeat CPU 0 instructions: 260000001 cycles: 100068085 heartbeat IPC: 1.17344 cumulative IPC: 1.21174 (Simulation time: 0 hr 7 min 53 sec) 
Heartbeat CPU 0 instructions: 270000002 cycles: 108622464 heartbeat IPC: 1.16899 cumulative IPC: 1.20544 (Simulation time: 0 hr 8 min 15 sec) 
Heartbeat CPU 0 instructions: 280000000 cycles: 117168165 heartbeat IPC: 1.17018 cumulative IPC: 1.20092 (Simulation time: 0 hr 8 min 37 sec) 
Heartbeat CPU 0 instructions: 290000004 cycles: 125824715 heartbeat IPC: 1.1552 cumulative IPC: 1.19566 (Simulation time: 0 hr 9 min 0 sec) 
Heartbeat CPU 0 instructions: 300000003 cycles: 134287606 heartbeat IPC: 1.18163 cumulative IPC: 1.19424 (Simulation time: 0 hr 9 min 21 sec) 
Heartbeat CPU 0 instructions: 310000002 cycles: 141078650 heartbeat IPC: 1.47253 cumulative IPC: 1.21512 (Simulation time: 0 hr 9 min 39 sec) 
Heartbeat CPU 0 instructions: 320000000 cycles: 153592912 heartbeat IPC: 0.799088 cumulative IPC: 1.16459 (Simulation time: 0 hr 10 min 18 sec) 
Heartbeat CPU 0 instructions: 330000000 cycles: 168284896 heartbeat IPC: 0.680643 cumulative IPC: 1.1042 (Simulation time: 0 hr 11 min 8 sec) 
Heartbeat CPU 0 instructions: 340000002 cycles: 178455489 heartbeat IPC: 0.983227 cumulative IPC: 1.09458 (Simulation time: 0 hr 11 min 38 sec) 
Heartbeat CPU 0 instructions: 350000000 cycles: 187180693 heartbeat IPC: 1.1461 cumulative IPC: 1.09787 (Simulation time: 0 hr 12 min 2 sec) 
Heartbeat CPU 0 instructions: 360000002 cycles: 197182985 heartbeat IPC: 0.999771 cumulative IPC: 1.09118 (Simulation time: 0 hr 12 min 30 sec) 
Heartbeat CPU 0 instructions: 370000000 cycles: 206998651 heartbeat IPC: 1.01878 cumulative IPC: 1.08664 (Simulation time: 0 hr 12 min 57 sec) 
Heartbeat CPU 0 instructions: 380000003 cycles: 216402867 heartbeat IPC: 1.06335 cumulative IPC: 1.08531 (Simulation time: 0 hr 13 min 22 sec) 
Heartbeat CPU 0 instructions: 390000000 cycles: 227139802 heartbeat IPC: 0.931364 cumulative IPC: 1.07595 (Simulation time: 0 hr 13 min 54 sec) 
Heartbeat CPU 0 instructions: 400000000 cycles: 237644680 heartbeat IPC: 0.951939 cumulative IPC: 1.06899 (Simulation time: 0 hr 14 min 25 sec) 
Heartbeat CPU 0 instructions: 410000001 cycles: 248352222 heartbeat IPC: 0.933921 cumulative IPC: 1.06168 (Simulation time: 0 hr 14 min 56 sec) 
Heartbeat CPU 0 instructions: 420000003 cycles: 259189770 heartbeat IPC: 0.922718 cumulative IPC: 1.05446 (Simulation time: 0 hr 15 min 28 sec) 
Heartbeat CPU 0 instructions: 430000000 cycles: 269658035 heartbeat IPC: 0.955268 cumulative IPC: 1.04972 (Simulation time: 0 hr 15 min 58 sec) 
Heartbeat CPU 0 instructions: 440000003 cycles: 278843440 heartbeat IPC: 1.08868 cumulative IPC: 1.05129 (Simulation time: 0 hr 16 min 24 sec) 
Heartbeat CPU 0 instructions: 450000000 cycles: 287461809 heartbeat IPC: 1.16031 cumulative IPC: 1.05526 (Simulation time: 0 hr 16 min 49 sec) 
Heartbeat CPU 0 instructions: 460000004 cycles: 295470751 heartbeat IPC: 1.2486 cumulative IPC: 1.06158 (Simulation time: 0 hr 17 min 8 sec) 
Heartbeat CPU 0 instructions: 470000001 cycles: 302045536 heartbeat IPC: 1.52096 cumulative IPC: 1.07359 (Simulation time: 0 hr 17 min 25 sec) 
Heartbeat CPU 0 instructions: 480000001 cycles: 308644155 heartbeat IPC: 1.51547 cumulative IPC: 1.08489 (Simulation time: 0 hr 17 min 41 sec) 
Heartbeat CPU 0 instructions: 490000002 cycles: 315513425 heartbeat IPC: 1.45576 cumulative IPC: 1.0945 (Simulation time: 0 hr 17 min 58 sec) 
Heartbeat CPU 0 instructions: 500000002 cycles: 322345838 heartbeat IPC: 1.46361 cumulative IPC: 1.10378 (Simulation time: 0 hr 18 min 15 sec) 
Heartbeat CPU 0 instructions: 510000003 cycles: 329184675 heartbeat IPC: 1.46224 cumulative IPC: 1.11258 (Simulation time: 0 hr 18 min 32 sec) 
Heartbeat CPU 0 instructions: 520000000 cycles: 335974343 heartbeat IPC: 1.47283 cumulative IPC: 1.12115 (Simulation time: 0 hr 18 min 48 sec) 
Heartbeat CPU 0 instructions: 530000004 cycles: 342775715 heartbeat IPC: 1.47029 cumulative IPC: 1.12927 (Simulation time: 0 hr 19 min 4 sec) 
Heartbeat CPU 0 instructions: 540000001 cycles: 349576801 heartbeat IPC: 1.47035 cumulative IPC: 1.13703 (Simulation time: 0 hr 19 min 21 sec) 
Heartbeat CPU 0 instructions: 550000000 cycles: 356310459 heartbeat IPC: 1.48508 cumulative IPC: 1.1447 (Simulation time: 0 hr 19 min 37 sec) 
Heartbeat CPU 0 instructions: 560000002 cycles: 363043588 heartbeat IPC: 1.48519 cumulative IPC: 1.15203 (Simulation time: 0 hr 19 min 53 sec) 
Heartbeat CPU 0 instructions: 570000003 cycles: 369792401 heartbeat IPC: 1.48174 cumulative IPC: 1.159 (Simulation time: 0 hr 20 min 10 sec) 
Heartbeat CPU 0 instructions: 580000001 cycles: 376435390 heartbeat IPC: 1.50535 cumulative IPC: 1.16606 (Simulation time: 0 hr 20 min 26 sec) 
Heartbeat CPU 0 instructions: 590000002 cycles: 383959072 heartbeat IPC: 1.32914 cumulative IPC: 1.16974 (Simulation time: 0 hr 20 min 45 sec) 
Heartbeat CPU 0 instructions: 600000004 cycles: 391724431 heartbeat IPC: 1.28777 cumulative IPC: 1.17243 (Simulation time: 0 hr 21 min 6 sec) 
Heartbeat CPU 0 instructions: 610000004 cycles: 398702985 heartbeat IPC: 1.43296 cumulative IPC: 1.17765 (Simulation time: 0 hr 21 min 23 sec) 
Heartbeat CPU 0 instructions: 620000000 cycles: 407282753 heartbeat IPC: 1.16553 cumulative IPC: 1.17736 (Simulation time: 0 hr 21 min 44 sec) 
Heartbeat CPU 0 instructions: 630000003 cycles: 415785058 heartbeat IPC: 1.17615 cumulative IPC: 1.17733 (Simulation time: 0 hr 22 min 6 sec) 
Heartbeat CPU 0 instructions: 640000000 cycles: 424762098 heartbeat IPC: 1.11395 cumulative IPC: 1.17581 (Simulation time: 0 hr 22 min 30 sec) 
Heartbeat CPU 0 instructions: 650000001 cycles: 433264867 heartbeat IPC: 1.17609 cumulative IPC: 1.17582 (Simulation time: 0 hr 22 min 51 sec) 
Heartbeat CPU 0 instructions: 660000002 cycles: 441155009 heartbeat IPC: 1.2674 cumulative IPC: 1.17767 (Simulation time: 0 hr 23 min 10 sec) 
Heartbeat CPU 0 instructions: 670000002 cycles: 448667070 heartbeat IPC: 1.33119 cumulative IPC: 1.18056 (Simulation time: 0 hr 23 min 30 sec) 
Heartbeat CPU 0 instructions: 680000001 cycles: 457722641 heartbeat IPC: 1.10429 cumulative IPC: 1.17887 (Simulation time: 0 hr 23 min 56 sec) 
Heartbeat CPU 0 instructions: 690000001 cycles: 465798893 heartbeat IPC: 1.2382 cumulative IPC: 1.18002 (Simulation time: 0 hr 24 min 19 sec) 
Heartbeat CPU 0 instructions: 700000000 cycles: 473884764 heartbeat IPC: 1.23672 cumulative IPC: 1.18111 (Simulation time: 0 hr 24 min 40 sec) 
Finished CPU 0 instructions: 500000000 cycles: 423332396 cumulative IPC: 1.18111 (Simulation time: 0 hr 24 min 40 sec) 

ChampSim completed all CPUs

Region of Interest Statistics

CPU 0 cumulative IPC: 1.18111 instructions: 500000000 cycles: 423332396
cpu0_L1I TOTAL     ACCESS:   26818497  HIT:   26818494  MISS:          3
cpu0_L1I LOAD      ACCESS:   26818497  HIT:   26818494  MISS:          3
cpu0_L1I RFO       ACCESS:          0  HIT:          0  MISS:          0
cpu0_L1I PREFETCH  ACCESS:          0  HIT:          0  MISS:          0
cpu0_L1I WRITEBACK ACCESS:          0  HIT:          0  MISS:          0
cpu0_L1I TRANSLATION ACCESS:          0  HIT:          0  MISS:          0
cpu0_L1I PREFETCH  REQUESTED:          0  ISSUED:          0  USEFUL:          0  USELESS:          0
cpu0_L1I AVERAGE MISS LATENCY: 194 cycles
cpu0_DTLB TOTAL     ACCESS:   62692636  HIT:   62671768  MISS:      20868
cpu0_DTLB LOAD      ACCESS:   39272047  HIT:   39255920  MISS:      16127
cpu0_DTLB RFO       ACCESS:   23420589  HIT:   23415848  MISS:       4741
cpu0_DTLB PREFETCH  ACCESS:          0  HIT:          0  MISS:          0
cpu0_DTLB WRITEBACK ACCESS:          0  HIT:          0  MISS:          0
cpu0_DTLB TRANSLATION ACCESS:          0  HIT:          0  MISS:          0
cpu0_DTLB PREFETCH  REQUESTED:          0  ISSUED:          0  USEFUL:          0  USELESS:          0
cpu0_DTLB AVERAGE MISS LATENCY: 41.0261 cycles
cpu0_ITLB TOTAL     ACCESS:   38597602  HIT:   38597602  MISS:          0
cpu0_ITLB LOAD      ACCESS:   38597602  HIT:   38597602  MISS:          0
cpu0_ITLB RFO       ACCESS:          0  HIT:          0  MISS:          0
cpu0_ITLB PREFETCH  ACCESS:          0  HIT:          0  MISS:          0
cpu0_ITLB WRITEBACK ACCESS:          0  HIT:          0  MISS:          0
cpu0_ITLB TRANSLATION ACCESS:          0  HIT:          0  MISS:          0
cpu0_ITLB PREFETCH  REQUESTED:          0  ISSUED:          0  USEFUL:          0  USELESS:          0
cpu0_ITLB AVERAGE MISS LATENCY: -nan cycles
cpu0_STLB TOTAL     ACCESS:      20868  HIT:      17655  MISS:       3213
cpu0_STLB LOAD      ACCESS:      16127  HIT:      15697  MISS:        430
cpu0_STLB RFO       ACCESS:       4741  HIT:       1958  MISS:       2783
cpu0_STLB PREFETCH  ACCESS:          0  HIT:          0  MISS:          0
cpu0_STLB WRITEBACK ACCESS:          0  HIT:          0  MISS:          0
cpu0_STLB TRANSLATION ACCESS:          0  HIT:          0  MISS:          0
cpu0_STLB PREFETCH  REQUESTED:          0  ISSUED:          0  USEFUL:          0  USELESS:          0
cpu0_STLB AVERAGE MISS LATENCY: 208.003 cycles
cpu0_L1D TOTAL     ACCESS:   79939197  HIT:   79565731  MISS:     373466
cpu0_L1D LOAD      ACCESS:   46549554  HIT:   46474699  MISS:      74855
cpu0_L1D RFO       ACCESS:   33386430  HIT:   33087820  MISS:     298610
cpu0_L1D PREFETCH  ACCESS:          0  HIT:          0  MISS:          0
cpu0_L1D WRITEBACK ACCESS:          0  HIT:          0  MISS:          0
cpu0_L1D TRANSLATION ACCESS:       3213  HIT:       3212  MISS:          1
cpu0_L1D PREFETCH  REQUESTED:          0  ISSUED:          0  USEFUL:          0  USELESS:          0
cpu0_L1D AVERAGE MISS LATENCY: 64.1416 cycles
cpu0_L2C TOTAL     ACCESS:     676581  HIT:     456799  MISS:     219782
cpu0_L2C LOAD      ACCESS:      74858  HIT:      48219  MISS:      26639
cpu0_L2C RFO       ACCESS:     298610  HIT:     105467  MISS:     193143
cpu0_L2C PREFETCH  ACCESS:          0  HIT:          0  MISS:          0
cpu0_L2C WRITEBACK ACCESS:     303112  HIT:     303112  MISS:          0
cpu0_L2C TRANSLATION ACCESS:          1  HIT:          1  MISS:          0
cpu0_L2C PREFETCH  REQUESTED:          0  ISSUED:          0  USEFUL:          0  USELESS:          0
cpu0_L2C AVERAGE MISS LATENCY: 90.3012 cycles
LLC TOTAL     ACCESS:     244292  HIT:      23766  MISS:     220526
LLC LOAD      ACCESS:      26639  HIT:      21411  MISS:       5228
LLC RFO       ACCESS:     193143  HIT:       2243  MISS:     190900
LLC PREFETCH  ACCESS:      24510  HIT:        112  MISS:      24398
LLC WRITEBACK ACCESS:          0  HIT:          0  MISS:          0
LLC TRANSLATION ACCESS:          0  HIT:          0  MISS:          0
LLC PREFETCH  REQUESTED:      26639  ISSUED:      26639  USEFUL:      25633  USELESS:       1658
LLC AVERAGE MISS LATENCY: 76.5857 cycles

DRAM Statistics
 CHANNEL 0
 RQ ROW_BUFFER_HIT:     185983  ROW_BUFFER_MISS:      34543
 DBUS AVG_CONGESTED_CYCLE:    3.28394
 WQ ROW_BUFFER_HIT:          0  ROW_BUFFER_MISS:          0  FULL:          0


CPU 0 Branch Prediction Accuracy: 84.6851% MPKI: 16.4572 Average ROB Occupancy at Mispredict: 24.2401
Branch type MPKI
BRANCH_DIRECT_JUMP: 5e-05
BRANCH_INDIRECT: 0.031682
BRANCH_CONDITIONAL: 16.4254
BRANCH_DIRECT_CALL: 0
BRANCH_INDIRECT_CALL: 2.4e-05
BRANCH_RETURN: 0

