/home/caslab/workspace/sim/ChampSim/bin/champsim --warmup_instructions 200000000 --simulation_instructions 500000000/ /home/caslab/workspace/sim/traces/speccpu_by_champsim410.bwaves-2097B.champsimtrace.xz
start simulation for 410.bwaves-2097B.champsimtrace.xz

*** ChampSim Multicore Out-of-Order Simulator ***

Warmup Instructions: 200000000
Simulation Instructions: 500000000
Number of CPUs: 1
Off-chip DRAM Size: 4 GiB Channels: 1 Width: 64-bit Data Rate: 3200 MT/s

VirtualMemory physical capacity: 8588881920 num_ppages: 2096895
VirtualMemory page size: 4096 log2_page_size: 12

CPU 0 runs /home/caslab/workspace/sim/traces/speccpu_by_champsim/410.bwaves-2097B.champsimtrace.xz
CPU 0 Bimodal branch predictor
Basic BTB sets: 1024 ways: 8 indirect buffer size: 4096 RAS size: 64
LLC next line prefetcher
WARNING: The extended signature CACHE::prefetch_line(ip, base_addr, pf_addr, fill_this_level, prefetch_metadata) is deprecated.
WARNING: Use CACHE::prefetch_line(pf_addr, fill_this_level, prefetch_metadata) instead.
Heartbeat CPU 0 instructions: 10000001 cycles: 4406384 heartbeat IPC: 2.26943 cumulative IPC: 2.26943 (Simulation time: 0 hr 0 min 46 sec) 
Heartbeat CPU 0 instructions: 20000003 cycles: 8812659 heartbeat IPC: 2.26949 cumulative IPC: 2.26946 (Simulation time: 0 hr 1 min 32 sec) 
Heartbeat CPU 0 instructions: 30000000 cycles: 13218899 heartbeat IPC: 2.26951 cumulative IPC: 2.26948 (Simulation time: 0 hr 2 min 18 sec) 
Heartbeat CPU 0 instructions: 40000001 cycles: 17625167 heartbeat IPC: 2.26949 cumulative IPC: 2.26948 (Simulation time: 0 hr 3 min 3 sec) 
Heartbeat CPU 0 instructions: 50000002 cycles: 22031433 heartbeat IPC: 2.2695 cumulative IPC: 2.26948 (Simulation time: 0 hr 3 min 49 sec) 
Heartbeat CPU 0 instructions: 60000001 cycles: 26437677 heartbeat IPC: 2.26951 cumulative IPC: 2.26949 (Simulation time: 0 hr 4 min 35 sec) 
Heartbeat CPU 0 instructions: 70000004 cycles: 30843944 heartbeat IPC: 2.2695 cumulative IPC: 2.26949 (Simulation time: 0 hr 5 min 21 sec) 
Heartbeat CPU 0 instructions: 80000001 cycles: 35250202 heartbeat IPC: 2.2695 cumulative IPC: 2.26949 (Simulation time: 0 hr 6 min 7 sec) 
Heartbeat CPU 0 instructions: 90000000 cycles: 39656470 heartbeat IPC: 2.26949 cumulative IPC: 2.26949 (Simulation time: 0 hr 6 min 52 sec) 
Heartbeat CPU 0 instructions: 100000000 cycles: 44062736 heartbeat IPC: 2.2695 cumulative IPC: 2.26949 (Simulation time: 0 hr 7 min 38 sec) 
Heartbeat CPU 0 instructions: 110000000 cycles: 48468983 heartbeat IPC: 2.26951 cumulative IPC: 2.26949 (Simulation time: 0 hr 8 min 24 sec) 
Heartbeat CPU 0 instructions: 120000001 cycles: 52875239 heartbeat IPC: 2.2695 cumulative IPC: 2.26949 (Simulation time: 0 hr 9 min 10 sec) 
Heartbeat CPU 0 instructions: 130000002 cycles: 57281499 heartbeat IPC: 2.2695 cumulative IPC: 2.26949 (Simulation time: 0 hr 9 min 56 sec) 
Heartbeat CPU 0 instructions: 140000002 cycles: 61687746 heartbeat IPC: 2.26951 cumulative IPC: 2.26949 (Simulation time: 0 hr 10 min 42 sec) 
Heartbeat CPU 0 instructions: 150000000 cycles: 66094015 heartbeat IPC: 2.26949 cumulative IPC: 2.26949 (Simulation time: 0 hr 11 min 28 sec) 
Heartbeat CPU 0 instructions: 160000002 cycles: 70500290 heartbeat IPC: 2.26949 cumulative IPC: 2.26949 (Simulation time: 0 hr 12 min 14 sec) 
Heartbeat CPU 0 instructions: 170000001 cycles: 74906535 heartbeat IPC: 2.26951 cumulative IPC: 2.2695 (Simulation time: 0 hr 13 min 0 sec) 
Heartbeat CPU 0 instructions: 180000002 cycles: 79312803 heartbeat IPC: 2.26949 cumulative IPC: 2.2695 (Simulation time: 0 hr 13 min 46 sec) 
Heartbeat CPU 0 instructions: 190000001 cycles: 83719047 heartbeat IPC: 2.26951 cumulative IPC: 2.2695 (Simulation time: 0 hr 14 min 32 sec) 
Heartbeat CPU 0 instructions: 200000004 cycles: 88125315 heartbeat IPC: 2.2695 cumulative IPC: 2.2695 (Simulation time: 0 hr 15 min 17 sec) 

Warmup complete CPU 0 instructions: 200000004 cycles: 88125315 (Simulation time: 0 hr 15 min 17 sec) 

Heartbeat CPU 0 instructions: 210000003 cycles: 111520336 heartbeat IPC: 0.427441 cumulative IPC: 0.427441 (Simulation time: 0 hr 16 min 49 sec) 
Heartbeat CPU 0 instructions: 220000000 cycles: 134945360 heartbeat IPC: 0.426894 cumulative IPC: 0.427167 (Simulation time: 0 hr 18 min 20 sec) 
Heartbeat CPU 0 instructions: 230000000 cycles: 158402799 heartbeat IPC: 0.426304 cumulative IPC: 0.426879 (Simulation time: 0 hr 19 min 53 sec) 
Heartbeat CPU 0 instructions: 240000000 cycles: 181797862 heartbeat IPC: 0.427441 cumulative IPC: 0.427019 (Simulation time: 0 hr 21 min 25 sec) 
Heartbeat CPU 0 instructions: 250000000 cycles: 205194615 heartbeat IPC: 0.42741 cumulative IPC: 0.427097 (Simulation time: 0 hr 22 min 56 sec) 
Heartbeat CPU 0 instructions: 260000001 cycles: 228622941 heartbeat IPC: 0.426834 cumulative IPC: 0.427053 (Simulation time: 0 hr 24 min 28 sec) 
Heartbeat CPU 0 instructions: 270000000 cycles: 252031971 heartbeat IPC: 0.427186 cumulative IPC: 0.427072 (Simulation time: 0 hr 25 min 59 sec) 
Heartbeat CPU 0 instructions: 280000000 cycles: 275466611 heartbeat IPC: 0.426719 cumulative IPC: 0.427028 (Simulation time: 0 hr 27 min 30 sec) 
Heartbeat CPU 0 instructions: 290000000 cycles: 298914501 heartbeat IPC: 0.426478 cumulative IPC: 0.426967 (Simulation time: 0 hr 29 min 2 sec) 
Heartbeat CPU 0 instructions: 300000002 cycles: 322348456 heartbeat IPC: 0.426731 cumulative IPC: 0.426943 (Simulation time: 0 hr 30 min 33 sec) 
Heartbeat CPU 0 instructions: 310000000 cycles: 345771789 heartbeat IPC: 0.426925 cumulative IPC: 0.426942 (Simulation time: 0 hr 32 min 5 sec) 
Heartbeat CPU 0 instructions: 320000004 cycles: 367081231 heartbeat IPC: 0.469276 cumulative IPC: 0.430175 (Simulation time: 0 hr 33 min 32 sec) 
Heartbeat CPU 0 instructions: 330000002 cycles: 379344571 heartbeat IPC: 0.815438 cumulative IPC: 0.446399 (Simulation time: 0 hr 34 min 32 sec) 
Heartbeat CPU 0 instructions: 340000001 cycles: 394472183 heartbeat IPC: 0.661043 cumulative IPC: 0.456998 (Simulation time: 0 hr 35 min 44 sec) 
Heartbeat CPU 0 instructions: 350000004 cycles: 414261864 heartbeat IPC: 0.505314 cumulative IPC: 0.45993 (Simulation time: 0 hr 37 min 10 sec) 
Heartbeat CPU 0 instructions: 360000002 cycles: 445576278 heartbeat IPC: 0.319342 cumulative IPC: 0.447614 (Simulation time: 0 hr 39 min 7 sec) 
Heartbeat CPU 0 instructions: 370000001 cycles: 469713562 heartbeat IPC: 0.414297 cumulative IPC: 0.445506 (Simulation time: 0 hr 40 min 41 sec) 
Heartbeat CPU 0 instructions: 380000000 cycles: 493101675 heartbeat IPC: 0.427568 cumulative IPC: 0.44447 (Simulation time: 0 hr 42 min 12 sec) 
Heartbeat CPU 0 instructions: 390000001 cycles: 516527226 heartbeat IPC: 0.426884 cumulative IPC: 0.443509 (Simulation time: 0 hr 43 min 44 sec) 
Heartbeat CPU 0 instructions: 400000001 cycles: 540029462 heartbeat IPC: 0.425491 cumulative IPC: 0.442572 (Simulation time: 0 hr 45 min 15 sec) 
Heartbeat CPU 0 instructions: 410000002 cycles: 563529877 heartbeat IPC: 0.425524 cumulative IPC: 0.441729 (Simulation time: 0 hr 46 min 47 sec) 
Heartbeat CPU 0 instructions: 420000004 cycles: 587092106 heartbeat IPC: 0.424408 cumulative IPC: 0.440911 (Simulation time: 0 hr 48 min 19 sec) 
Heartbeat CPU 0 instructions: 430000004 cycles: 610606025 heartbeat IPC: 0.42528 cumulative IPC: 0.440208 (Simulation time: 0 hr 49 min 50 sec) 
Heartbeat CPU 0 instructions: 440000001 cycles: 634110952 heartbeat IPC: 0.425443 cumulative IPC: 0.439572 (Simulation time: 0 hr 51 min 22 sec) 
Heartbeat CPU 0 instructions: 450000003 cycles: 657599363 heartbeat IPC: 0.425742 cumulative IPC: 0.439002 (Simulation time: 0 hr 52 min 53 sec) 
Heartbeat CPU 0 instructions: 460000002 cycles: 681082795 heartbeat IPC: 0.425832 cumulative IPC: 0.43848 (Simulation time: 0 hr 54 min 25 sec) 
Heartbeat CPU 0 instructions: 470000003 cycles: 704572674 heartbeat IPC: 0.425715 cumulative IPC: 0.437994 (Simulation time: 0 hr 55 min 57 sec) 
Heartbeat CPU 0 instructions: 480000001 cycles: 728073828 heartbeat IPC: 0.425511 cumulative IPC: 0.437535 (Simulation time: 0 hr 57 min 29 sec) 
Heartbeat CPU 0 instructions: 490000001 cycles: 751582807 heartbeat IPC: 0.425369 cumulative IPC: 0.437104 (Simulation time: 0 hr 59 min 1 sec) 
Heartbeat CPU 0 instructions: 500000001 cycles: 775126576 heartbeat IPC: 0.424741 cumulative IPC: 0.43668 (Simulation time: 1 hr 0 min 32 sec) 
Heartbeat CPU 0 instructions: 510000003 cycles: 798664450 heartbeat IPC: 0.424847 cumulative IPC: 0.436288 (Simulation time: 1 hr 2 min 4 sec) 
Heartbeat CPU 0 instructions: 520000001 cycles: 822183328 heartbeat IPC: 0.42519 cumulative IPC: 0.435933 (Simulation time: 1 hr 3 min 35 sec) 
Heartbeat CPU 0 instructions: 530000001 cycles: 845711176 heartbeat IPC: 0.425028 cumulative IPC: 0.435594 (Simulation time: 1 hr 5 min 7 sec) 
Heartbeat CPU 0 instructions: 540000004 cycles: 869186907 heartbeat IPC: 0.425972 cumulative IPC: 0.435305 (Simulation time: 1 hr 6 min 38 sec) 
Heartbeat CPU 0 instructions: 550000003 cycles: 892736262 heartbeat IPC: 0.42464 cumulative IPC: 0.434993 (Simulation time: 1 hr 8 min 10 sec) 
Heartbeat CPU 0 instructions: 560000001 cycles: 916260654 heartbeat IPC: 0.425091 cumulative IPC: 0.434712 (Simulation time: 1 hr 9 min 41 sec) 
Heartbeat CPU 0 instructions: 570000003 cycles: 939799930 heartbeat IPC: 0.424822 cumulative IPC: 0.434438 (Simulation time: 1 hr 11 min 13 sec) 
Heartbeat CPU 0 instructions: 580000003 cycles: 963323263 heartbeat IPC: 0.42511 cumulative IPC: 0.434188 (Simulation time: 1 hr 12 min 45 sec) 
Heartbeat CPU 0 instructions: 590000004 cycles: 986826435 heartbeat IPC: 0.425475 cumulative IPC: 0.43396 (Simulation time: 1 hr 14 min 16 sec) 
Heartbeat CPU 0 instructions: 600000001 cycles: 1010377268 heartbeat IPC: 0.424613 cumulative IPC: 0.433721 (Simulation time: 1 hr 15 min 48 sec) 
Heartbeat CPU 0 instructions: 610000002 cycles: 1033901965 heartbeat IPC: 0.425085 cumulative IPC: 0.433506 (Simulation time: 1 hr 17 min 21 sec) 
Heartbeat CPU 0 instructions: 620000000 cycles: 1057410782 heartbeat IPC: 0.425372 cumulative IPC: 0.433309 (Simulation time: 1 hr 18 min 52 sec) 
Heartbeat CPU 0 instructions: 630000004 cycles: 1080993193 heartbeat IPC: 0.424045 cumulative IPC: 0.433089 (Simulation time: 1 hr 20 min 25 sec) 
Heartbeat CPU 0 instructions: 640000000 cycles: 1104543416 heartbeat IPC: 0.424624 cumulative IPC: 0.432893 (Simulation time: 1 hr 21 min 57 sec) 
Heartbeat CPU 0 instructions: 650000000 cycles: 1128061532 heartbeat IPC: 0.425204 cumulative IPC: 0.432719 (Simulation time: 1 hr 23 min 28 sec) 
Heartbeat CPU 0 instructions: 660000002 cycles: 1151525750 heartbeat IPC: 0.426181 cumulative IPC: 0.432575 (Simulation time: 1 hr 25 min 0 sec) 
Heartbeat CPU 0 instructions: 670000004 cycles: 1175044348 heartbeat IPC: 0.425195 cumulative IPC: 0.432415 (Simulation time: 1 hr 26 min 31 sec) 
Heartbeat CPU 0 instructions: 680000004 cycles: 1198575306 heartbeat IPC: 0.424972 cumulative IPC: 0.432257 (Simulation time: 1 hr 28 min 3 sec) 
Heartbeat CPU 0 instructions: 690000000 cycles: 1222145561 heartbeat IPC: 0.424263 cumulative IPC: 0.432091 (Simulation time: 1 hr 29 min 35 sec) 
Heartbeat CPU 0 instructions: 700000003 cycles: 1245680551 heartbeat IPC: 0.424899 cumulative IPC: 0.431945 (Simulation time: 1 hr 31 min 6 sec) 
Finished CPU 0 instructions: 500000004 cycles: 1157555237 cumulative IPC: 0.431945 (Simulation time: 1 hr 31 min 6 sec) 

ChampSim completed all CPUs

Region of Interest Statistics

CPU 0 cumulative IPC: 0.431945 instructions: 500000004 cycles: 1157555237
cpu0_DTLB TOTAL     ACCESS:  168847587  HIT:  168481081  MISS:     366506
cpu0_DTLB LOAD      ACCESS:  155233248  HIT:  154894660  MISS:     338588
cpu0_DTLB RFO       ACCESS:   13614339  HIT:   13586421  MISS:      27918
cpu0_DTLB PREFETCH  ACCESS:          0  HIT:          0  MISS:          0
cpu0_DTLB WRITEBACK ACCESS:          0  HIT:          0  MISS:          0
cpu0_DTLB TRANSLATION ACCESS:          0  HIT:          0  MISS:          0
cpu0_DTLB PREFETCH  REQUESTED:          0  ISSUED:          0  USEFUL:          0  USELESS:          0
cpu0_DTLB AVERAGE MISS LATENCY: 50.4834 cycles
cpu0_L1I TOTAL     ACCESS:         87  HIT:         33  MISS:         54
cpu0_L1I LOAD      ACCESS:         87  HIT:         33  MISS:         54
cpu0_L1I RFO       ACCESS:          0  HIT:          0  MISS:          0
cpu0_L1I PREFETCH  ACCESS:          0  HIT:          0  MISS:          0
cpu0_L1I WRITEBACK ACCESS:          0  HIT:          0  MISS:          0
cpu0_L1I TRANSLATION ACCESS:          0  HIT:          0  MISS:          0
cpu0_L1I PREFETCH  REQUESTED:          0  ISSUED:          0  USEFUL:          0  USELESS:          0
cpu0_L1I AVERAGE MISS LATENCY: 159.741 cycles
cpu0_ITLB TOTAL     ACCESS:   46562907  HIT:   46562906  MISS:          1
cpu0_ITLB LOAD      ACCESS:   46562907  HIT:   46562906  MISS:          1
cpu0_ITLB RFO       ACCESS:          0  HIT:          0  MISS:          0
cpu0_ITLB PREFETCH  ACCESS:          0  HIT:          0  MISS:          0
cpu0_ITLB WRITEBACK ACCESS:          0  HIT:          0  MISS:          0
cpu0_ITLB TRANSLATION ACCESS:          0  HIT:          0  MISS:          0
cpu0_ITLB PREFETCH  REQUESTED:          0  ISSUED:          0  USEFUL:          0  USELESS:          0
cpu0_ITLB AVERAGE MISS LATENCY: 1008 cycles
cpu0_STLB TOTAL     ACCESS:     366507  HIT:     224716  MISS:     141791
cpu0_STLB LOAD      ACCESS:     338589  HIT:     200253  MISS:     138336
cpu0_STLB RFO       ACCESS:      27918  HIT:      24463  MISS:       3455
cpu0_STLB PREFETCH  ACCESS:          0  HIT:          0  MISS:          0
cpu0_STLB WRITEBACK ACCESS:          0  HIT:          0  MISS:          0
cpu0_STLB TRANSLATION ACCESS:          0  HIT:          0  MISS:          0
cpu0_STLB PREFETCH  REQUESTED:          0  ISSUED:          0  USEFUL:          0  USELESS:          0
cpu0_STLB AVERAGE MISS LATENCY: 107.185 cycles
cpu0_L1D TOTAL     ACCESS:  193716514  HIT:  183465057  MISS:   10251457
cpu0_L1D LOAD      ACCESS:  157863277  HIT:  147993115  MISS:    9870162
cpu0_L1D RFO       ACCESS:   35711450  HIT:   35453650  MISS:     257800
cpu0_L1D PREFETCH  ACCESS:          0  HIT:          0  MISS:          0
cpu0_L1D WRITEBACK ACCESS:          0  HIT:          0  MISS:          0
cpu0_L1D TRANSLATION ACCESS:     141787  HIT:      18292  MISS:     123495
cpu0_L1D PREFETCH  REQUESTED:          0  ISSUED:          0  USEFUL:          0  USELESS:          0
cpu0_L1D AVERAGE MISS LATENCY: 698.1 cycles
cpu0_L2C TOTAL     ACCESS:   10689042  HIT:    1424825  MISS:    9264217
cpu0_L2C LOAD      ACCESS:    9868594  HIT:     824776  MISS:    9043818
cpu0_L2C RFO       ACCESS:     252706  HIT:      32479  MISS:     220227
cpu0_L2C PREFETCH  ACCESS:          0  HIT:          0  MISS:          0
cpu0_L2C WRITEBACK ACCESS:     444247  HIT:     444163  MISS:         84
cpu0_L2C TRANSLATION ACCESS:     123495  HIT:     123407  MISS:         88
cpu0_L2C PREFETCH  REQUESTED:          0  ISSUED:          0  USEFUL:          0  USELESS:          0
cpu0_L2C AVERAGE MISS LATENCY: 760.128 cycles
LLC TOTAL     ACCESS:   12087120  HIT:    3096641  MISS:    8990479
LLC LOAD      ACCESS:    9043818  HIT:    2294667  MISS:    6749151
LLC RFO       ACCESS:     220227  HIT:          5  MISS:     220222
LLC PREFETCH  ACCESS:    2433801  HIT:     412818  MISS:    2020983
LLC WRITEBACK ACCESS:     389186  HIT:     389141  MISS:         45
LLC TRANSLATION ACCESS:         88  HIT:         10  MISS:         78
LLC PREFETCH  REQUESTED:    9043818  ISSUED:    9043818  USEFUL:    6819971  USELESS:     137266
LLC AVERAGE MISS LATENCY: 702.358 cycles

DRAM Statistics
 CHANNEL 0
 RQ ROW_BUFFER_HIT:      43480  ROW_BUFFER_MISS:    8946907
 DBUS AVG_CONGESTED_CYCLE:    3.99483
 WQ ROW_BUFFER_HIT:      87097  ROW_BUFFER_MISS:     302307  FULL:          0


CPU 0 Branch Prediction Accuracy: 71.4142% MPKI: 9.94251 Average ROB Occupancy at Mispredict: 246.23
Branch type MPKI
BRANCH_DIRECT_JUMP: 3.2e-05
BRANCH_INDIRECT: 0
BRANCH_CONDITIONAL: 9.94247
BRANCH_DIRECT_CALL: 2e-06
BRANCH_INDIRECT_CALL: 0
BRANCH_RETURN: 2e-06

