/home/caslab/workspace/sim/ChampSim/bin/champsim --warmup_instructions 200000000 --simulation_instructions 500000000/ /home/caslab/workspace/sim/traces/speccpu_by_champsim433.milc-337B.champsimtrace.xz
start simulation for 433.milc-337B.champsimtrace.xz

*** ChampSim Multicore Out-of-Order Simulator ***

Warmup Instructions: 200000000
Simulation Instructions: 500000000
Number of CPUs: 1
Off-chip DRAM Size: 4 GiB Channels: 1 Width: 64-bit Data Rate: 3200 MT/s

VirtualMemory physical capacity: 8588881920 num_ppages: 2096895
VirtualMemory page size: 4096 log2_page_size: 12

CPU 0 runs /home/caslab/workspace/sim/traces/speccpu_by_champsim/433.milc-337B.champsimtrace.xz
CPU 0 Bimodal branch predictor
Basic BTB sets: 1024 ways: 8 indirect buffer size: 4096 RAS size: 64
LLC next line prefetcher
WARNING: The extended signature CACHE::prefetch_line(ip, base_addr, pf_addr, fill_this_level, prefetch_metadata) is deprecated.
WARNING: Use CACHE::prefetch_line(pf_addr, fill_this_level, prefetch_metadata) instead.
Heartbeat CPU 0 instructions: 10000003 cycles: 2500077 heartbeat IPC: 3.99988 cumulative IPC: 3.99988 (Simulation time: 0 hr 0 min 21 sec) 
Heartbeat CPU 0 instructions: 20000003 cycles: 5000077 heartbeat IPC: 4 cumulative IPC: 3.99994 (Simulation time: 0 hr 0 min 41 sec) 
Heartbeat CPU 0 instructions: 30000003 cycles: 7500077 heartbeat IPC: 4 cumulative IPC: 3.99996 (Simulation time: 0 hr 1 min 1 sec) 
Heartbeat CPU 0 instructions: 40000003 cycles: 10000077 heartbeat IPC: 4 cumulative IPC: 3.99997 (Simulation time: 0 hr 1 min 21 sec) 
Heartbeat CPU 0 instructions: 50000003 cycles: 12500077 heartbeat IPC: 4 cumulative IPC: 3.99998 (Simulation time: 0 hr 1 min 42 sec) 
Heartbeat CPU 0 instructions: 60000000 cycles: 15359980 heartbeat IPC: 3.49662 cumulative IPC: 3.90626 (Simulation time: 0 hr 2 min 6 sec) 
Heartbeat CPU 0 instructions: 70000000 cycles: 17859980 heartbeat IPC: 4 cumulative IPC: 3.91938 (Simulation time: 0 hr 2 min 27 sec) 
Heartbeat CPU 0 instructions: 80000000 cycles: 20359980 heartbeat IPC: 4 cumulative IPC: 3.92928 (Simulation time: 0 hr 2 min 48 sec) 
Heartbeat CPU 0 instructions: 90000000 cycles: 22859980 heartbeat IPC: 4 cumulative IPC: 3.93701 (Simulation time: 0 hr 3 min 8 sec) 
Heartbeat CPU 0 instructions: 100000000 cycles: 25359980 heartbeat IPC: 4 cumulative IPC: 3.94322 (Simulation time: 0 hr 3 min 28 sec) 
Heartbeat CPU 0 instructions: 110000000 cycles: 27859980 heartbeat IPC: 4 cumulative IPC: 3.94832 (Simulation time: 0 hr 3 min 48 sec) 
Heartbeat CPU 0 instructions: 120000000 cycles: 30359980 heartbeat IPC: 4 cumulative IPC: 3.95257 (Simulation time: 0 hr 4 min 8 sec) 
Heartbeat CPU 0 instructions: 130000001 cycles: 33059886 heartbeat IPC: 3.70383 cumulative IPC: 3.93226 (Simulation time: 0 hr 4 min 31 sec) 
Heartbeat CPU 0 instructions: 140000001 cycles: 35559886 heartbeat IPC: 4 cumulative IPC: 3.93702 (Simulation time: 0 hr 4 min 51 sec) 
Heartbeat CPU 0 instructions: 150000001 cycles: 38059886 heartbeat IPC: 4 cumulative IPC: 3.94116 (Simulation time: 0 hr 5 min 11 sec) 
Heartbeat CPU 0 instructions: 160000001 cycles: 40559886 heartbeat IPC: 4 cumulative IPC: 3.94478 (Simulation time: 0 hr 5 min 32 sec) 
Heartbeat CPU 0 instructions: 170000001 cycles: 43059886 heartbeat IPC: 4 cumulative IPC: 3.94799 (Simulation time: 0 hr 5 min 52 sec) 
Heartbeat CPU 0 instructions: 180000001 cycles: 45559886 heartbeat IPC: 4 cumulative IPC: 3.95084 (Simulation time: 0 hr 6 min 12 sec) 
Heartbeat CPU 0 instructions: 190000001 cycles: 48059886 heartbeat IPC: 4 cumulative IPC: 3.9534 (Simulation time: 0 hr 6 min 32 sec) 
Heartbeat CPU 0 instructions: 200000001 cycles: 50559886 heartbeat IPC: 4 cumulative IPC: 3.95571 (Simulation time: 0 hr 6 min 52 sec) 

Warmup complete CPU 0 instructions: 200000001 cycles: 50559886 (Simulation time: 0 hr 6 min 52 sec) 

Heartbeat CPU 0 instructions: 210000002 cycles: 73027349 heartbeat IPC: 0.445088 cumulative IPC: 0.445088 (Simulation time: 0 hr 7 min 34 sec) 
Heartbeat CPU 0 instructions: 220000002 cycles: 95503340 heartbeat IPC: 0.444919 cumulative IPC: 0.445004 (Simulation time: 0 hr 8 min 17 sec) 
Heartbeat CPU 0 instructions: 230000002 cycles: 117950417 heartbeat IPC: 0.445492 cumulative IPC: 0.445166 (Simulation time: 0 hr 8 min 59 sec) 
Heartbeat CPU 0 instructions: 240000002 cycles: 160221910 heartbeat IPC: 0.236566 cumulative IPC: 0.364757 (Simulation time: 0 hr 10 min 9 sec) 
Heartbeat CPU 0 instructions: 250000003 cycles: 204197217 heartbeat IPC: 0.2274 cumulative IPC: 0.325442 (Simulation time: 0 hr 11 min 28 sec) 
Heartbeat CPU 0 instructions: 260000003 cycles: 214749096 heartbeat IPC: 0.947699 cumulative IPC: 0.365432 (Simulation time: 0 hr 12 min 7 sec) 
Heartbeat CPU 0 instructions: 270000003 cycles: 225179747 heartbeat IPC: 0.958713 cumulative IPC: 0.400871 (Simulation time: 0 hr 12 min 45 sec) 
Heartbeat CPU 0 instructions: 280000000 cycles: 236155008 heartbeat IPC: 0.91114 cumulative IPC: 0.431046 (Simulation time: 0 hr 13 min 25 sec) 
Heartbeat CPU 0 instructions: 290000003 cycles: 248042031 heartbeat IPC: 0.841254 cumulative IPC: 0.455737 (Simulation time: 0 hr 14 min 7 sec) 
Heartbeat CPU 0 instructions: 300000003 cycles: 260363455 heartbeat IPC: 0.811594 cumulative IPC: 0.476636 (Simulation time: 0 hr 14 min 50 sec) 
Heartbeat CPU 0 instructions: 310000003 cycles: 272819475 heartbeat IPC: 0.802825 cumulative IPC: 0.494917 (Simulation time: 0 hr 15 min 32 sec) 
Heartbeat CPU 0 instructions: 320000001 cycles: 285269615 heartbeat IPC: 0.803204 cumulative IPC: 0.51127 (Simulation time: 0 hr 16 min 15 sec) 
Heartbeat CPU 0 instructions: 330000003 cycles: 299724343 heartbeat IPC: 0.691815 cumulative IPC: 0.521744 (Simulation time: 0 hr 17 min 9 sec) 
Heartbeat CPU 0 instructions: 340000000 cycles: 314667945 heartbeat IPC: 0.669182 cumulative IPC: 0.530086 (Simulation time: 0 hr 18 min 2 sec) 
Heartbeat CPU 0 instructions: 350000003 cycles: 329292924 heartbeat IPC: 0.683762 cumulative IPC: 0.538149 (Simulation time: 0 hr 18 min 54 sec) 
Heartbeat CPU 0 instructions: 360000001 cycles: 343628006 heartbeat IPC: 0.697589 cumulative IPC: 0.545948 (Simulation time: 0 hr 19 min 45 sec) 
Heartbeat CPU 0 instructions: 370000000 cycles: 358377250 heartbeat IPC: 0.678001 cumulative IPC: 0.552276 (Simulation time: 0 hr 20 min 38 sec) 
Heartbeat CPU 0 instructions: 380000003 cycles: 373067329 heartbeat IPC: 0.680732 cumulative IPC: 0.558127 (Simulation time: 0 hr 21 min 31 sec) 
Heartbeat CPU 0 instructions: 390000003 cycles: 387670126 heartbeat IPC: 0.6848 cumulative IPC: 0.563614 (Simulation time: 0 hr 22 min 24 sec) 
Heartbeat CPU 0 instructions: 400000001 cycles: 399825267 heartbeat IPC: 0.822697 cumulative IPC: 0.57263 (Simulation time: 0 hr 23 min 7 sec) 
Heartbeat CPU 0 instructions: 410000000 cycles: 409436180 heartbeat IPC: 1.04048 cumulative IPC: 0.58516 (Simulation time: 0 hr 23 min 42 sec) 
Heartbeat CPU 0 instructions: 420000002 cycles: 419162792 heartbeat IPC: 1.02811 cumulative IPC: 0.596848 (Simulation time: 0 hr 24 min 16 sec) 
Heartbeat CPU 0 instructions: 430000002 cycles: 429223896 heartbeat IPC: 0.993927 cumulative IPC: 0.607399 (Simulation time: 0 hr 24 min 52 sec) 
Heartbeat CPU 0 instructions: 440000003 cycles: 440307739 heartbeat IPC: 0.902214 cumulative IPC: 0.615783 (Simulation time: 0 hr 25 min 30 sec) 
Heartbeat CPU 0 instructions: 450000000 cycles: 451534670 heartbeat IPC: 0.890715 cumulative IPC: 0.623481 (Simulation time: 0 hr 26 min 9 sec) 
Heartbeat CPU 0 instructions: 460000002 cycles: 462890648 heartbeat IPC: 0.880594 cumulative IPC: 0.630562 (Simulation time: 0 hr 26 min 47 sec) 
Heartbeat CPU 0 instructions: 470000004 cycles: 474392235 heartbeat IPC: 0.869445 cumulative IPC: 0.637044 (Simulation time: 0 hr 27 min 30 sec) 
Heartbeat CPU 0 instructions: 480000004 cycles: 488233449 heartbeat IPC: 0.72248 cumulative IPC: 0.639746 (Simulation time: 0 hr 28 min 16 sec) 
Heartbeat CPU 0 instructions: 490000001 cycles: 501957777 heartbeat IPC: 0.728633 cumulative IPC: 0.642449 (Simulation time: 0 hr 29 min 2 sec) 
Heartbeat CPU 0 instructions: 500000001 cycles: 515312506 heartbeat IPC: 0.748798 cumulative IPC: 0.645505 (Simulation time: 0 hr 29 min 46 sec) 
Heartbeat CPU 0 instructions: 510000002 cycles: 528784703 heartbeat IPC: 0.74227 cumulative IPC: 0.648231 (Simulation time: 0 hr 30 min 32 sec) 
Heartbeat CPU 0 instructions: 520000004 cycles: 542550641 heartbeat IPC: 0.726431 cumulative IPC: 0.650419 (Simulation time: 0 hr 31 min 18 sec) 
Heartbeat CPU 0 instructions: 530000004 cycles: 556231927 heartbeat IPC: 0.730925 cumulative IPC: 0.652597 (Simulation time: 0 hr 32 min 4 sec) 
Heartbeat CPU 0 instructions: 540000004 cycles: 569361016 heartbeat IPC: 0.761667 cumulative IPC: 0.655357 (Simulation time: 0 hr 32 min 51 sec) 
Heartbeat CPU 0 instructions: 550000004 cycles: 622896651 heartbeat IPC: 0.186791 cumulative IPC: 0.611528 (Simulation time: 0 hr 34 min 9 sec) 
Heartbeat CPU 0 instructions: 560000004 cycles: 698867232 heartbeat IPC: 0.13163 cumulative IPC: 0.555292 (Simulation time: 0 hr 35 min 41 sec) 
Heartbeat CPU 0 instructions: 570000004 cycles: 721320110 heartbeat IPC: 0.445377 cumulative IPC: 0.551613 (Simulation time: 0 hr 36 min 22 sec) 
Heartbeat CPU 0 instructions: 580000004 cycles: 743785304 heartbeat IPC: 0.445133 cumulative IPC: 0.548162 (Simulation time: 0 hr 37 min 5 sec) 
Heartbeat CPU 0 instructions: 590000004 cycles: 766246133 heartbeat IPC: 0.44522 cumulative IPC: 0.544932 (Simulation time: 0 hr 37 min 47 sec) 
Heartbeat CPU 0 instructions: 600000002 cycles: 783785327 heartbeat IPC: 0.570152 cumulative IPC: 0.545535 (Simulation time: 0 hr 38 min 30 sec) 
Heartbeat CPU 0 instructions: 610000001 cycles: 797351849 heartbeat IPC: 0.737109 cumulative IPC: 0.549015 (Simulation time: 0 hr 39 min 12 sec) 
Heartbeat CPU 0 instructions: 620000001 cycles: 811171410 heartbeat IPC: 0.723612 cumulative IPC: 0.552187 (Simulation time: 0 hr 39 min 55 sec) 
Heartbeat CPU 0 instructions: 630000004 cycles: 825598573 heartbeat IPC: 0.693137 cumulative IPC: 0.554811 (Simulation time: 0 hr 40 min 39 sec) 
Heartbeat CPU 0 instructions: 640000000 cycles: 840510326 heartbeat IPC: 0.670612 cumulative IPC: 0.556997 (Simulation time: 0 hr 41 min 25 sec) 
Heartbeat CPU 0 instructions: 650000003 cycles: 855828722 heartbeat IPC: 0.65281 cumulative IPC: 0.55882 (Simulation time: 0 hr 42 min 12 sec) 
Heartbeat CPU 0 instructions: 660000004 cycles: 871229637 heartbeat IPC: 0.649312 cumulative IPC: 0.560518 (Simulation time: 0 hr 42 min 59 sec) 
Heartbeat CPU 0 instructions: 670000001 cycles: 886366811 heartbeat IPC: 0.660625 cumulative IPC: 0.562331 (Simulation time: 0 hr 43 min 49 sec) 
Heartbeat CPU 0 instructions: 680000003 cycles: 936518067 heartbeat IPC: 0.199397 cumulative IPC: 0.541786 (Simulation time: 0 hr 44 min 57 sec) 
Heartbeat CPU 0 instructions: 690000000 cycles: 951134199 heartbeat IPC: 0.684175 cumulative IPC: 0.544097 (Simulation time: 0 hr 45 min 50 sec) 
Heartbeat CPU 0 instructions: 700000003 cycles: 965885857 heartbeat IPC: 0.67789 cumulative IPC: 0.546254 (Simulation time: 0 hr 46 min 42 sec) 
Finished CPU 0 instructions: 500000002 cycles: 915325971 cumulative IPC: 0.546254 (Simulation time: 0 hr 46 min 42 sec) 

ChampSim completed all CPUs

Region of Interest Statistics

CPU 0 cumulative IPC: 0.546254 instructions: 500000002 cycles: 915325971
cpu0_DTLB TOTAL     ACCESS:   76312822  HIT:   75277491  MISS:    1035331
cpu0_DTLB LOAD      ACCESS:   59188029  HIT:   58263452  MISS:     924577
cpu0_DTLB RFO       ACCESS:   17124793  HIT:   17014039  MISS:     110754
cpu0_DTLB PREFETCH  ACCESS:          0  HIT:          0  MISS:          0
cpu0_DTLB WRITEBACK ACCESS:          0  HIT:          0  MISS:          0
cpu0_DTLB TRANSLATION ACCESS:          0  HIT:          0  MISS:          0
cpu0_DTLB PREFETCH  REQUESTED:          0  ISSUED:          0  USEFUL:          0  USELESS:          0
cpu0_DTLB AVERAGE MISS LATENCY: 17.79 cycles
cpu0_L1I TOTAL     ACCESS:    2067999  HIT:    2067930  MISS:         69
cpu0_L1I LOAD      ACCESS:    2067999  HIT:    2067930  MISS:         69
cpu0_L1I RFO       ACCESS:          0  HIT:          0  MISS:          0
cpu0_L1I PREFETCH  ACCESS:          0  HIT:          0  MISS:          0
cpu0_L1I WRITEBACK ACCESS:          0  HIT:          0  MISS:          0
cpu0_L1I TRANSLATION ACCESS:          0  HIT:          0  MISS:          0
cpu0_L1I PREFETCH  REQUESTED:          0  ISSUED:          0  USEFUL:          0  USELESS:          0
cpu0_L1I AVERAGE MISS LATENCY: 145.377 cycles
cpu0_ITLB TOTAL     ACCESS:   49708071  HIT:   49708067  MISS:          4
cpu0_ITLB LOAD      ACCESS:   49708071  HIT:   49708067  MISS:          4
cpu0_ITLB RFO       ACCESS:          0  HIT:          0  MISS:          0
cpu0_ITLB PREFETCH  ACCESS:          0  HIT:          0  MISS:          0
cpu0_ITLB WRITEBACK ACCESS:          0  HIT:          0  MISS:          0
cpu0_ITLB TRANSLATION ACCESS:          0  HIT:          0  MISS:          0
cpu0_ITLB PREFETCH  REQUESTED:          0  ISSUED:          0  USEFUL:          0  USELESS:          0
cpu0_ITLB AVERAGE MISS LATENCY: 296 cycles
cpu0_STLB TOTAL     ACCESS:    1035335  HIT:       2251  MISS:    1033084
cpu0_STLB LOAD      ACCESS:     924581  HIT:       1893  MISS:     922688
cpu0_STLB RFO       ACCESS:     110754  HIT:        358  MISS:     110396
cpu0_STLB PREFETCH  ACCESS:          0  HIT:          0  MISS:          0
cpu0_STLB WRITEBACK ACCESS:          0  HIT:          0  MISS:          0
cpu0_STLB TRANSLATION ACCESS:          0  HIT:          0  MISS:          0
cpu0_STLB PREFETCH  REQUESTED:          0  ISSUED:          0  USEFUL:          0  USELESS:          0
cpu0_STLB AVERAGE MISS LATENCY: 8.81019 cycles
cpu0_L1D TOTAL     ACCESS:   54668366  HIT:   42136821  MISS:   12531545
cpu0_L1D LOAD      ACCESS:   34364689  HIT:   25852557  MISS:    8512132
cpu0_L1D RFO       ACCESS:   19270607  HIT:   15275930  MISS:    3994677
cpu0_L1D PREFETCH  ACCESS:          0  HIT:          0  MISS:          0
cpu0_L1D WRITEBACK ACCESS:          0  HIT:          0  MISS:          0
cpu0_L1D TRANSLATION ACCESS:    1033070  HIT:    1008334  MISS:      24736
cpu0_L1D PREFETCH  REQUESTED:          0  ISSUED:          0  USEFUL:          0  USELESS:          0
cpu0_L1D AVERAGE MISS LATENCY: 347.376 cycles
cpu0_L2C TOTAL     ACCESS:   17453681  HIT:    4946673  MISS:   12507008
cpu0_L2C LOAD      ACCESS:    8512201  HIT:       1087  MISS:    8511114
cpu0_L2C RFO       ACCESS:    3994677  HIT:         14  MISS:    3994663
cpu0_L2C PREFETCH  ACCESS:          0  HIT:          0  MISS:          0
cpu0_L2C WRITEBACK ACCESS:    4922067  HIT:    4922059  MISS:          8
cpu0_L2C TRANSLATION ACCESS:      24736  HIT:      23513  MISS:       1223
cpu0_L2C PREFETCH  REQUESTED:          0  ISSUED:          0  USEFUL:          0  USELESS:          0
cpu0_L2C AVERAGE MISS LATENCY: 337.022 cycles
LLC TOTAL     ACCESS:   20561952  HIT:    6126646  MISS:   14435306
LLC LOAD      ACCESS:    8511114  HIT:    1002688  MISS:    7508426
LLC RFO       ACCESS:    3994663  HIT:     119395  MISS:    3875268
LLC PREFETCH  ACCESS:    3132796  HIT:     139067  MISS:    2993729
LLC WRITEBACK ACCESS:    4922156  HIT:    4864515  MISS:      57641
LLC TRANSLATION ACCESS:       1223  HIT:        981  MISS:        242
LLC PREFETCH  REQUESTED:    8511115  ISSUED:    8511115  USEFUL:    3062489  USELESS:    2137880
LLC AVERAGE MISS LATENCY: 312.316 cycles

DRAM Statistics
 CHANNEL 0
 RQ ROW_BUFFER_HIT:    3681502  ROW_BUFFER_MISS:   10695985
 DBUS AVG_CONGESTED_CYCLE:    3.96354
 WQ ROW_BUFFER_HIT:     599348  ROW_BUFFER_MISS:    4282452  FULL:          0


CPU 0 Branch Prediction Accuracy: 53.2934% MPKI: 22.2161 Average ROB Occupancy at Mispredict: 123.485
Branch type MPKI
BRANCH_DIRECT_JUMP: 3.6e-05
BRANCH_INDIRECT: 0
BRANCH_CONDITIONAL: 22.216
BRANCH_DIRECT_CALL: 5e-05
BRANCH_INDIRECT_CALL: 0
BRANCH_RETURN: 5e-05

